_cell_length_a 37.194
_cell_length_b 45.259999627434034
_cell_length_c 33.09000048594031
_cell_angle_alpha 107.03300062247644
_cell_angle_beta 90.06299939653213
_cell_angle_gamma 114.03899985713122
_symmetry_space_group_name_H-M         'P 1'
_symmetry_Int_Tables_number            1
loop_
_symmetry_equiv_pos_as_xyz
   'x, y, z'
                         
loop_
_atom_site_label
_atom_site_type_symbol
_atom_site_fract_x 
_atom_site_fract_y
_atom_site_fract_z
_atom_site_charge
Zn Zn 0.0275653 0.177953 0.36396 0.91541
Zn Zn 0.0268461 0.425076 0.363483 0.91541
Zn Zn 0.274011 0.172528 0.366514 0.91541
Zn Zn 0.27732 0.42382 0.363231 0.91541
Zn Zn 0.103469 0.0822937 0.386976 0.91541
Zn Zn 0.111349 0.333309 0.384428 0.91541
Zn Zn 0.352556 0.0787071 0.388602 0.91541
Zn Zn 0.351969 0.328196 0.384573 0.91541
Zn Zn 0.224181 0.0762212 0.135739 0.91541
Zn Zn 0.2271 0.325114 0.131864 0.91541
Zn Zn 0.474814 0.0738378 0.135533 0.91541
Zn Zn 0.478216 0.329559 0.138034 0.91541
Zn Zn 0.149407 0.170983 0.113417 0.91541
Zn Zn 0.144181 0.416474 0.112839 0.91541
Zn Zn 0.396276 0.169163 0.119751 0.91541
Zn Zn 0.39537 0.419997 0.112285 0.91541
Zn Zn 0.0540477 0.00447089 0.377089 1.11764
Zn Zn 0.052818 0.25498 0.372823 1.11764
Zn Zn 0.303208 0.00198559 0.376913 1.11764
Zn Zn 0.301808 0.25275 0.376576 1.11764
Zn Zn 0.191509 0.494826 0.128614 1.11764
Zn Zn 0.198332 0.248215 0.124393 1.11764
Zn Zn 0.445343 0.497758 0.124578 1.11764
Zn Zn 0.450025 0.24835 0.12868 1.11764
H_ H_ 0.251302 0.140121 0.229833 0.1146
H_ H_ 0.253344 0.386573 0.224504 0.1146
H_ H_ 0.505697 0.137465 0.227005 0.1146
H_ H_ 0.509396 0.39582 0.231866 0.1146
H_ H_ 0.191454 0.212977 0.196419 0.1146
H_ H_ 0.185402 0.452355 0.192729 0.1146
H_ H_ 0.442553 0.206837 0.196019 0.1146
H_ H_ 0.432459 0.459724 0.203648 0.1146
H_ H_ 0.232949 0.23212 0.265016 0.1146
H_ H_ 0.221484 0.472316 0.26699 0.1146
H_ H_ 0.476587 0.226652 0.270241 0.1146
H_ H_ 0.468924 0.476656 0.270923 0.1146
H_ H_ 0.225963 0.105225 0.0489729 0.42917
H_ H_ 0.176898 0.31192 0.0319089 0.42917
H_ H_ 0.445371 0.0736205 0.0489422 0.42917
H_ H_ 0.44624 0.323436 0.0397776 0.42917
H_ H_ 0.164694 0.116283 0.0554002 0.1146
H_ H_ 0.146423 0.350066 0.0599485 0.1146
H_ H_ 0.403733 0.102405 0.060841 0.1146
H_ H_ 0.415364 0.359911 0.06052 0.1146
H_ H_ 0.128457 0.0541211 0.0272786 0.1146
H_ H_ 0.0977153 0.288659 0.0634194 0.1146
H_ H_ 0.371482 0.0537154 0.114392 0.1146
H_ H_ 0.376705 0.306642 0.109082 0.1146
H_ H_ 0.143681 0.0492029 0.0721782 0.1146
H_ H_ 0.121715 0.297933 0.114917 0.1146
H_ H_ 0.34602 0.0726416 0.0912533 0.1146
H_ H_ 0.353088 0.32877 0.09392 0.1146
H_ H_ 0.114091 0.0669456 0.0837179 0.1146
H_ H_ 0.0974278 0.324688 0.106592 0.1146
H_ H_ 0.359156 0.0423752 0.0602442 0.1146
H_ H_ 0.362313 0.298751 0.0529013 0.1146
H_ H_ 0.0832321 0.230104 0.396891 0.42917
H_ H_ 0.0733286 0.473032 0.405427 0.42917
H_ H_ 0.330497 0.222221 0.393182 0.42917
H_ H_ 0.331841 0.475009 0.394701 0.42917
H_ H_ 0.11222 0.110108 0.0218991 0.1146
H_ H_ 0.107041 0.360292 0.019758 0.1146
H_ H_ 0.356704 0.114167 0.0174574 0.1146
H_ H_ 0.361881 0.357102 0.0213607 0.1146
H_ H_ 0.224029 0.0443473 0.0494147 0.1146
H_ H_ 0.227299 0.292982 0.0463792 0.1146
H_ H_ 0.484968 0.0325917 0.0537464 0.1146
H_ H_ 0.490576 0.290786 0.0568918 0.1146
H_ H_ 0.252274 0.0187631 0.490685 0.1146
H_ H_ 0.25009 0.268068 0.483406 0.1146
H_ H_ 0.500385 0.0263135 0.47873 0.1146
H_ H_ 0.502445 0.270789 0.485553 0.1146
H_ H_ 0.132763 0.157069 0.214514 0.42917
H_ H_ 0.112679 0.368052 0.20038 0.42917
H_ H_ 0.375624 0.145577 0.207058 0.42917
H_ H_ 0.361637 0.372858 0.198649 0.42917
H_ H_ 0.056616 0.12957 0.197432 0.1146
H_ H_ 0.051739 0.373531 0.193159 0.1146
H_ H_ 0.30301 0.125276 0.1926 0.1146
H_ H_ 0.301008 0.37438 0.188419 0.1146
H_ H_ 0.0589922 0.186184 0.176636 0.1146
H_ H_ 0.0645869 0.429967 0.185734 0.1146
H_ H_ 0.308093 0.182079 0.175549 0.1146
H_ H_ 0.31126 0.433664 0.185252 0.1146
H_ H_ 0.0774183 0.188378 0.227357 0.1146
H_ H_ 0.0954784 0.433382 0.230279 0.1146
H_ H_ 0.326861 0.188468 0.229453 0.1146
H_ H_ 0.338847 0.435498 0.232253 0.1146
H_ H_ 0.109553 0.196249 0.186743 0.1146
H_ H_ 0.117247 0.437162 0.184844 0.1146
H_ H_ 0.359034 0.196725 0.192616 0.1146
H_ H_ 0.364269 0.443398 0.187806 0.1146
H_ H_ 0.11649 0.0350659 0.372005 0.42917
H_ H_ 0.116443 0.282425 0.368836 0.42917
H_ H_ 0.361621 0.029652 0.363434 0.42917
H_ H_ 0.355322 0.277345 0.349826 0.42917
H_ H_ 1.00289859 0.115398 0.269477 0.1146
H_ H_ 0.999344 0.362272 0.271277 0.1146
H_ H_ 0.238675 0.10642 0.277097 0.1146
H_ H_ 0.246984 0.359575 0.269774 0.1146
H_ H_ 0.0586579 0.0411368 0.306564 0.1146
H_ H_ 0.0505309 0.286219 0.304084 0.1146
H_ H_ 0.30967 0.0403388 0.306459 0.1146
H_ H_ 0.304604 0.289061 0.306062 0.1146
H_ H_ 0.0285796 0.027497 0.232666 0.1146
H_ H_ 0.0160763 0.271599 0.234265 0.1146
H_ H_ 0.280143 0.0253383 0.233567 0.1146
H_ H_ 0.276645 0.274333 0.230487 0.1146
H_ H_ 0.0634828 0.1737 0.47159 0.42917
H_ H_ 0.0777825 0.434833 0.469094 0.42917
H_ H_ 0.313209 0.180241 0.465727 0.42917
H_ H_ 0.324117 0.439596 0.456684 0.42917
H_ H_ 0.103973 0.146454 0.432284 0.1146
H_ H_ 0.113746 0.4013 0.432646 0.1146
H_ H_ 0.356058 0.153234 0.445435 0.1146
H_ H_ 0.349481 0.397028 0.43999 0.1146
H_ H_ 0.113684 0.195692 0.383667 0.1146
H_ H_ 0.117356 0.449383 0.385225 0.1146
H_ H_ 0.397073 0.207375 0.442986 0.1146
H_ H_ 0.405173 0.448787 0.433832 0.1146
H_ H_ 0.144873 0.17695 0.392891 0.1146
H_ H_ 0.142796 0.427733 0.382209 0.1146
H_ H_ 0.374622 0.199152 0.389022 0.1146
H_ H_ 0.381934 0.450296 0.390189 0.1146
H_ H_ 0.147294 0.212801 0.430859 0.1146
H_ H_ 0.151183 0.455713 0.435555 0.1146
H_ H_ 0.396478 0.174448 0.397287 0.1146
H_ H_ 0.397055 0.415059 0.386963 0.1146
H_ H_ 0.164277 0.0245039 0.112307 0.42917
H_ H_ 0.169576 0.272841 0.099851 0.42917
H_ H_ 0.417005 0.0239859 0.103476 0.42917
H_ H_ 0.422485 0.278759 0.108195 0.42917
H_ H_ 0.139079 0.138928 0.483223 0.1146
H_ H_ 0.150809 0.384671 0.484132 0.1146
H_ H_ 0.389287 0.137266 0.4796 0.1146
H_ H_ 0.388835 0.384342 0.477821 0.1146
H_ H_ 0.0316416 0.216391 0.452952 0.1146
H_ H_ 0.0219876 0.459104 0.448212 0.1146
H_ H_ 0.272926 0.210339 0.451893 0.1146
H_ H_ 0.269185 0.469217 0.446855 0.1146
H_ H_ 0.005349999999999966 0.219813 0.0218904 0.1146
H_ H_ 0.990689 0.478897 0.0137182 0.1146
H_ H_ 0.250906 0.231886 0.0157042 0.1146
H_ H_ 0.243409 0.480919 0.0175426 0.1146
H_ H_ 0.123227 0.117341 0.291608 0.42917
H_ H_ 0.127741 0.370352 0.299857 0.42917
H_ H_ 0.381148 0.127774 0.313704 0.42917
H_ H_ 0.372229 0.372742 0.298492 0.42917
H_ H_ 0.194753 0.128172 0.308722 0.1146
H_ H_ 0.199334 0.380674 0.304136 0.1146
H_ H_ 0.448902 0.120584 0.305417 0.1146
H_ H_ 0.442609 0.378979 0.308702 0.1146
H_ H_ 0.180247 0.0674184 0.313526 0.1146
H_ H_ 0.150299 0.322503 0.266408 0.1146
H_ H_ 0.41235 0.0689006 0.266608 0.1146
H_ H_ 0.433699 0.317788 0.311353 0.1146
H_ H_ 0.163896 0.0724616 0.267509 0.1146
H_ H_ 0.135559 0.310968 0.313452 0.1146
H_ H_ 0.38272 0.0527557 0.307458 0.1146
H_ H_ 0.414021 0.318893 0.262903 0.1146
H_ H_ 0.129325 0.0567102 0.300912 0.1146
H_ H_ 0.184708 0.321024 0.305666 0.1146
H_ H_ 0.438166 0.0662549 0.315233 0.1146
H_ H_ 0.384491 0.303357 0.301365 0.1146
H_ H_ 0.14304 0.219732 0.140962 0.42917
H_ H_ 0.128881 0.461545 0.12548 0.42917
H_ H_ 0.390433 0.219524 0.138364 0.42917
H_ H_ 0.381825 0.46497 0.130309 0.42917
C_ C_ 0.238376 0.156205 0.222465 -0.12085
C_ C_ 0.241366 0.403078 0.217918 -0.12085
C_ C_ 0.494553 0.154575 0.221977 -0.12085
C_ C_ 0.491599 0.408812 0.224696 -0.12085
C_ C_ 0.0111409 0.197823 0.297415 0.6956
C_ C_ 0.0112046 0.444507 0.300424 0.6956
C_ C_ 0.258312 0.19554 0.301467 0.6956
C_ C_ 0.264054 0.445169 0.295392 0.6956
C_ C_ 0.240938 0.185899 0.254782 -0.16651
C_ C_ 0.243114 0.433137 0.250717 -0.16651
C_ C_ 0.49447 0.184881 0.25666 -0.16651
C_ C_ 0.487306 0.43484 0.258653 -0.16651
C_ C_ 0.206058 0.19785 0.20252 -0.12085
C_ C_ 0.20621 0.442798 0.199897 -0.12085
C_ C_ 0.461356 0.195423 0.202301 -0.12085
C_ C_ 0.448832 0.444793 0.207724 -0.12085
C_ C_ 0.218736 0.146947 0.180566 0.16698
C_ C_ 0.222682 0.394413 0.175376 0.16698
C_ C_ 0.472661 0.145031 0.180166 0.16698
C_ C_ 0.470562 0.398764 0.182563 0.16698
C_ C_ 0.183478 0.120967 0.11931 0.36401
C_ C_ 0.180666 0.366551 0.117887 0.36401
C_ C_ 0.430099 0.118373 0.124566 0.36401
C_ C_ 0.435018 0.372219 0.121558 0.36401
C_ C_ 0.203909 0.168055 0.171833 0.16698
C_ C_ 0.20603 0.415126 0.167183 0.16698
C_ C_ 0.460036 0.167278 0.17073 0.16698
C_ C_ 0.450342 0.416944 0.174797 0.16698
C_ C_ 0.226421 0.207007 0.242481 -0.12085
C_ C_ 0.222978 0.450862 0.241113 -0.12085
C_ C_ 0.476975 0.204395 0.246206 -0.12085
C_ C_ 0.464922 0.451554 0.248765 -0.12085
C_ C_ 0.172097 0.101311 0.0715029 0.15351
C_ C_ 0.154565 0.337658 0.0795708 0.15351
C_ C_ 0.407579 0.0897063 0.0844586 0.15351
C_ C_ 0.417274 0.345525 0.079848 0.15351
C_ C_ 0.137595 0.0667304 0.0625342 -0.35079
C_ C_ 0.116414 0.311064 0.0922547 -0.35079
C_ C_ 0.367774 0.0634108 0.0894965 -0.35079
C_ C_ 0.375751 0.318906 0.084297 -0.35079
C_ C_ 0.0815464 0.0992436 0.0253669 -0.12085
C_ C_ 0.0771696 0.344563 0.0229257 -0.12085
C_ C_ 0.328155 0.0999244 0.022761 -0.12085
C_ C_ 0.331753 0.346606 0.0238274 -0.12085
C_ C_ 0.0667557 0.0601095 0.449895 0.6956
C_ C_ 0.0657831 0.308104 0.445979 0.6956
C_ C_ 0.312543 0.0561064 0.452299 0.6956
C_ C_ 0.316949 0.304234 0.451935 0.6956
C_ C_ 0.0531118 0.0728949 0.492526 -0.16651
C_ C_ 0.0556561 0.319282 0.489995 -0.16651
C_ C_ 0.303211 0.0673766 0.497403 -0.16651
C_ C_ 0.306119 0.314849 0.498137 -0.16651
C_ C_ 0.255004 0.0566727 0.0431724 -0.12085
C_ C_ 0.256363 0.308079 0.039259 -0.12085
C_ C_ 0.505186 0.054009 0.0446244 -0.12085
C_ C_ 0.508629 0.310842 0.0455551 -0.12085
C_ C_ 0.0698504 0.110245 0.0660913 0.16698
C_ C_ 0.0642906 0.355077 0.0607838 0.16698
C_ C_ 0.316917 0.107775 0.0656185 0.16698
C_ C_ 0.317524 0.35839 0.063076 0.16698
C_ C_ 0.0660232 0.125998 0.133288 0.36401
C_ C_ 0.060791 0.371349 0.129207 0.36401
C_ C_ 0.312564 0.12428 0.130894 0.36401
C_ C_ 0.312959 0.375741 0.127287 0.36401
C_ C_ 0.0338131 0.0897267 0.0741647 0.16698
C_ C_ 0.0286096 0.334119 0.0706088 0.16698
C_ C_ 0.281458 0.0861322 0.0739212 0.16698
C_ C_ 0.282338 0.337939 0.0711332 0.16698
C_ C_ 0.0168457 0.0505943 0.503509 -0.12085
C_ C_ 0.0203794 0.296882 0.500414 -0.12085
C_ C_ 0.270457 0.0453609 0.509865 -0.12085
C_ C_ 0.272397 0.29187 0.510309 -0.12085
C_ C_ 0.078194 0.14449 0.179897 0.15351
C_ C_ 0.0752587 0.385899 0.176701 0.15351
C_ C_ 0.324595 0.140172 0.177635 0.15351
C_ C_ 0.325497 0.389914 0.176438 0.15351
C_ C_ 0.0805071 0.179715 0.19207 -0.35079
C_ C_ 0.0886132 0.423388 0.194692 -0.35079
C_ C_ 0.329541 0.177636 0.194915 -0.35079
C_ C_ 0.335736 0.428232 0.19725 -0.35079
C_ C_ 0.0120566 0.0971921 0.276649 -0.12085
C_ C_ 0.00922851 0.346541 0.279021 -0.12085
C_ C_ 0.259715 0.0951165 0.28127 -0.12085
C_ C_ 0.26423 0.346677 0.275162 -0.12085
C_ C_ 0.237523 0.053086 0.201597 0.6956
C_ C_ 0.239978 0.303787 0.198505 0.6956
C_ C_ 0.483449 0.0477851 0.200589 0.6956
C_ C_ 0.486708 0.303276 0.205221 0.6956
C_ C_ 0.0106658 0.0665602 0.244593 -0.16651
C_ C_ 0.00559525 0.31607 0.246776 -0.16651
C_ C_ 0.257398 0.0651495 0.247922 -0.16651
C_ C_ 0.259309 0.314848 0.244886 -0.16651
C_ C_ 0.0409232 0.0551193 0.30084 -0.12085
C_ C_ 0.043364 0.304079 0.296371 -0.12085
C_ C_ 0.30054 0.0575924 0.297915 -0.12085
C_ C_ 0.292605 0.304357 0.297937 -0.12085
C_ C_ 0.0289982 0.105454 0.320141 0.16698
C_ C_ 0.0303062 0.35446 0.318873 0.16698
C_ C_ 0.284983 0.106957 0.320694 0.16698
C_ C_ 0.280988 0.354227 0.317537 0.16698
C_ C_ 0.0636667 0.132092 0.380756 0.36401
C_ C_ 0.0694568 0.381696 0.377359 0.36401
C_ C_ 0.315922 0.130338 0.385375 0.36401
C_ C_ 0.315722 0.379823 0.378491 0.36401
C_ C_ 0.0419924 0.0839532 0.33119 0.16698
C_ C_ 0.0485587 0.334574 0.32593 0.16698
C_ C_ 0.303444 0.0875485 0.329703 0.16698
C_ C_ 0.294886 0.333702 0.328145 0.16698
C_ C_ 0.0251414 0.0471833 0.257652 -0.12085
C_ C_ 0.0242715 0.296588 0.256097 -0.12085
C_ C_ 0.280141 0.0476446 0.257777 -0.12085
C_ C_ 0.276547 0.296179 0.25701 -0.12085
C_ C_ 0.0917564 0.16159 0.419543 0.15351
C_ C_ 0.0972075 0.41066 0.416271 0.15351
C_ C_ 0.342872 0.161106 0.421982 0.15351
C_ C_ 0.345444 0.408521 0.416519 0.15351
C_ C_ 0.125335 0.187887 0.407095 -0.35079
C_ C_ 0.129804 0.440321 0.405677 -0.35079
C_ C_ 0.380678 0.188694 0.413457 -0.35079
C_ C_ 0.383367 0.431603 0.405264 -0.35079
C_ C_ 0.167347 0.15459 0.476304 -0.12085
C_ C_ 0.176734 0.403294 0.474654 -0.12085
C_ C_ 0.41946 0.153362 0.475393 -0.12085
C_ C_ 0.418476 0.39849 0.473408 -0.12085
C_ C_ 0.184666 0.193393 0.0497652 0.6956
C_ C_ 0.180612 0.444611 0.0501336 0.6956
C_ C_ 0.434169 0.191877 0.0539443 0.6956
C_ C_ 0.434936 0.442025 0.0522437 0.6956
C_ C_ 0.198286 0.183773 0.00700508 -0.16651
C_ C_ 0.190379 0.433523 0.00661047 -0.16651
C_ C_ 0.442916 0.180813 0.00744802 -0.16651
C_ C_ 0.445009 0.431559 0.00718695 -0.16651
C_ C_ 1.00333658 0.196175 0.459238 -0.12085
C_ C_ 0.995926 0.441319 0.455513 -0.12085
C_ C_ 0.243813 0.19695 0.460564 -0.12085
C_ C_ 0.248085 0.44939 0.456969 -0.12085
C_ C_ 0.180663 0.144506 0.436418 0.16698
C_ C_ 0.188627 0.393678 0.434223 0.16698
C_ C_ 0.431763 0.145973 0.434389 0.16698
C_ C_ 0.432546 0.388911 0.434282 0.16698
C_ C_ 0.184332 0.12858 0.369837 0.36401
C_ C_ 0.191353 0.380876 0.36907 0.36401
C_ C_ 0.436135 0.124127 0.368539 0.36401
C_ C_ 0.433007 0.374502 0.366153 0.36401
C_ C_ 0.217157 0.167409 0.428368 0.16698
C_ C_ 0.226592 0.416038 0.427833 0.16698
C_ C_ 0.467741 0.166209 0.424364 0.16698
C_ C_ 0.467633 0.409786 0.426837 0.16698
C_ C_ 0.233797 0.204599 0.995896 -0.12085
C_ C_ 0.227844 0.455208 0.994781 -0.12085
C_ C_ 0.480546 0.201029 -0.0022140000000000493 -0.12085
C_ C_ 0.483274 0.449497 0.99811838 -0.12085
C_ C_ 0.169988 0.113453 0.321045 0.15351
C_ C_ 0.175303 0.368294 0.322634 0.15351
C_ C_ 0.42288 0.109286 0.322123 0.15351
C_ C_ 0.417617 0.361151 0.317984 0.15351
C_ C_ 0.159162 0.0756539 0.300553 -0.35079
C_ C_ 0.1604 0.328967 0.300953 -0.35079
C_ C_ 0.412844 0.0707497 0.301664 -0.35079
C_ C_ 0.411129 0.323666 0.299385 -0.35079
N_ N_ 0.206512 0.116177 0.147849 -0.51457
N_ N_ 0.207784 0.363042 0.144728 -0.51457
N_ N_ 0.45652 0.113929 0.15001 -0.51457
N_ N_ 0.460858 0.369194 0.148885 -0.51457
N_ N_ 0.18319 0.153317 0.133261 -0.51457
N_ N_ 0.178509 0.397677 0.132196 -0.51457
N_ N_ 0.430906 0.150713 0.136979 -0.51457
N_ N_ 0.429571 0.402124 0.133913 -0.51457
N_ N_ 0.090844 0.135705 0.103931 -0.51457
N_ N_ 0.0861212 0.38037 0.098665 -0.51457
N_ N_ 0.338603 0.133271 0.102802 -0.51457
N_ N_ 0.339679 0.38355 0.0991315 -0.51457
N_ N_ 0.0297278 0.0983991 0.116241 -0.51457
N_ N_ 0.0251522 0.344252 0.11243 -0.51457
N_ N_ 0.27754 0.0954462 0.114839 -0.51457
N_ N_ 0.276289 0.347436 0.110563 -0.51457
N_ N_ 0.0414294 0.136186 0.352063 -0.51457
N_ N_ 0.0432394 0.385063 0.351377 -0.51457
N_ N_ 0.290839 0.133115 0.356229 -0.51457
N_ N_ 0.293573 0.38445 0.348885 -0.51457
N_ N_ 0.0663853 0.100123 0.367621 -0.51457
N_ N_ 0.0730227 0.350463 0.362878 -0.51457
N_ N_ 0.322237 0.100786 0.369864 -0.51457
N_ N_ 0.317261 0.348325 0.365337 -0.51457
N_ N_ 0.159362 0.119738 0.399191 -0.51457
N_ N_ 0.165571 0.370636 0.397445 -0.51457
N_ N_ 0.409264 0.118773 0.399179 -0.51457
N_ N_ 0.408528 0.364418 0.397195 -0.51457
N_ N_ 0.220989 0.156021 0.38674 -0.51457
N_ N_ 0.227152 0.407686 0.385775 -0.51457
N_ N_ 0.471279 0.153711 0.383419 -0.51457
N_ N_ 0.469214 0.403462 0.385238 -0.51457
O_ O_ 0.0242897 0.229531 0.322114 -0.61362
O_ O_ 0.0180292 0.474738 0.326926 -0.61362
O_ O_ 0.265903 0.226211 0.328801 -0.61362
O_ O_ 0.271627 0.476725 0.319846 -0.61362
O_ O_ 0.0621964 0.223595 0.380751 -0.98607
O_ O_ 0.0577371 0.467724 0.384046 -0.98607
O_ O_ 0.307763 0.218471 0.382935 -0.98607
O_ O_ 0.308824 0.46835 0.382828 -0.98607
O_ O_ 0.0154007 0.175204 0.311522 -0.61362
O_ O_ 0.0225412 0.423921 0.310987 -0.61362
O_ O_ 0.269726 0.175277 0.31469 -0.61362
O_ O_ 0.27203 0.424027 0.308316 -0.61362
O_ O_ 0.201911 0.0960819 0.0547733 -0.55956
O_ O_ 0.173712 0.32165 0.0577348 -0.55956
O_ O_ 0.429851 0.0756061 0.0682033 -0.55956
O_ O_ 0.437957 0.329995 0.0627759 -0.55956
O_ O_ 0.0440426 0.0308978 0.422722 -0.61362
O_ O_ 0.042558 0.277525 0.419786 -0.61362
O_ O_ 0.289225 0.0253461 0.425096 -0.61362
O_ O_ 0.294304 0.27261 0.426136 -0.61362
O_ O_ 0.0957653 0.0394922 0.377636 -0.98607
O_ O_ 0.0971014 0.288576 0.37089 -0.98607
O_ O_ 0.342618 0.0356829 0.368786 -0.98607
O_ O_ 0.340726 0.284074 0.365787 -0.98607
O_ O_ 0.0973819 0.0813766 0.43945 -0.61362
O_ O_ 0.0994087 0.32874 0.436223 -0.61362
O_ O_ 0.344973 0.0768838 0.441376 -0.61362
O_ O_ 0.341378 0.327554 0.436017 -0.61362
O_ O_ 0.112078 0.148159 0.194752 -0.55956
O_ O_ 0.103617 0.379114 0.187061 -0.55956
O_ O_ 0.357882 0.139798 0.186617 -0.55956
O_ O_ 0.354001 0.384552 0.186095 -0.55956
O_ O_ 0.226926 0.0213305 0.17739 -0.61362
O_ O_ 0.232872 0.272744 0.171236 -0.61362
O_ O_ 0.476729 0.0172126 0.17535 -0.61362
O_ O_ 0.480521 0.272448 0.178748 -0.61362
O_ O_ 0.189594 0.031885 0.119499 -0.98607
O_ O_ 0.19173 0.280489 0.116465 -0.98607
O_ O_ 0.439832 0.0297641 0.11664 -0.98607
O_ O_ 0.44712 0.283966 0.120116 -0.98607
O_ O_ 0.228622 0.0736301 0.187343 -0.61362
O_ O_ 0.238072 0.327555 0.185059 -0.61362
O_ O_ 0.476812 0.0692405 0.18696 -0.61362
O_ O_ 0.48195 0.326168 0.189699 -0.61362
O_ O_ 0.075024 0.174412 0.448292 -0.55956
O_ O_ 0.0789646 0.423298 0.443874 -0.55956
O_ O_ 0.323089 0.175715 0.441579 -0.55956
O_ O_ 0.330356 0.4292 0.434153 -0.55956
O_ O_ 0.208454 0.223762 0.0793144 -0.61362
O_ O_ 0.202414 0.476833 0.0769654 -0.61362
O_ O_ 0.453063 0.223713 0.0772934 -0.61362
O_ O_ 0.454388 0.474021 0.0761889 -0.61362
O_ O_ 0.160339 0.214414 0.131505 -0.98607
O_ O_ 0.1513 0.459537 0.125838 -0.98607
O_ O_ 0.40865 0.212918 0.131031 -0.98607
O_ O_ 0.40286 0.46253 0.125461 -0.98607
O_ O_ 0.155642 0.170463 0.0607191 -0.61362
O_ O_ 0.15167 0.421302 0.0620134 -0.61362
O_ O_ 0.413077 0.16843 0.070229 -0.61362
O_ O_ 0.403493 0.42153 0.0624046 -0.61362
O_ O_ 0.140095 0.117997 0.310589 -0.55956
O_ O_ 0.147507 0.374749 0.31655 -0.55956
O_ O_ 0.393024 0.114195 0.312128 -0.55956
O_ O_ 0.386762 0.366081 0.309438 -0.55956
Zn Zn 0.0217932 0.170062 0.861141 0.91541
Zn Zn 0.0212628 0.420847 0.862053 0.91541
Zn Zn 0.276622 0.174358 0.863996 0.91541
Zn Zn 0.270115 0.420889 0.861168 0.91541
Zn Zn 0.107934 0.0817916 0.884002 0.91541
Zn Zn 0.10203 0.328652 0.886555 0.91541
Zn Zn 0.350354 0.0791538 0.883168 0.91541
Zn Zn 0.35454 0.332357 0.88743 0.91541
Zn Zn 0.223418 0.0765355 0.638777 0.91541
Zn Zn 0.225492 0.325156 0.639171 0.91541
Zn Zn 0.474583 0.0801463 0.637715 0.91541
Zn Zn 0.475174 0.330112 0.637569 0.91541
Zn Zn 0.144795 0.168623 0.61707 0.91541
Zn Zn 0.146518 0.417502 0.613764 0.91541
Zn Zn 0.397249 0.173715 0.615779 0.91541
Zn Zn 0.396846 0.420183 0.616872 0.91541
Zn Zn 0.054764 0.00269522 0.873815 1.11764
Zn Zn 0.0508587 0.247741 0.873137 1.11764
Zn Zn 0.302701 0.000142481 0.87149 1.11764
Zn Zn 0.303841 0.252623 0.869677 1.11764
Zn Zn 0.201168 0.495995 0.623905 1.11764
Zn Zn 0.192505 0.244385 0.631438 1.11764
Zn Zn 0.447576 0.495883 0.626523 1.11764
Zn Zn 0.447393 0.251838 0.623297 1.11764
H_ H_ 0.251411 0.140973 0.727993 0.1146
H_ H_ 0.252259 0.389298 0.732152 0.1146
H_ H_ 0.503166 0.143919 0.730251 0.1146
H_ H_ 0.504466 0.392908 0.729541 0.1146
H_ H_ 0.18946 0.209599 0.696799 0.1146
H_ H_ 0.184742 0.452547 0.69347 0.1146
H_ H_ 0.450892 0.216618 0.693753 0.1146
H_ H_ 0.438927 0.463126 0.705135 0.1146
H_ H_ 0.225019 0.22752 0.767858 0.1146
H_ H_ 0.219882 0.475214 0.767612 0.1146
H_ H_ 0.469567 0.230388 0.773638 0.1146
H_ H_ 0.472718 0.477957 0.776342 0.1146
H_ H_ 0.176496 0.0655369 0.541845 0.42917
H_ H_ 0.182676 0.316013 0.542564 0.42917
H_ H_ 0.448766 0.0828066 0.539205 0.42917
H_ H_ 0.444579 0.32714 0.538745 0.42917
H_ H_ 0.139172 0.100811 0.569621 0.1146
H_ H_ 0.14678 0.350295 0.563807 0.1146
H_ H_ 0.409026 0.1127 0.559629 0.1146
H_ H_ 0.40261 0.360159 0.560894 0.1146
H_ H_ 0.090388 0.0684562 0.607317 0.1146
H_ H_ 0.101603 0.298148 0.572001 0.1146
H_ H_ 0.356535 0.0840553 0.600575 0.1146
H_ H_ 0.357685 0.328146 0.608295 0.1146
H_ H_ 0.100829 0.0346163 0.580324 0.1146
H_ H_ 0.127421 0.303367 0.619394 0.1146
H_ H_ 0.356989 0.0564212 0.551125 0.1146
H_ H_ 0.35761 0.302627 0.557661 0.1146
H_ H_ 0.124481 0.0603701 0.63379 0.1146
H_ H_ 0.105633 0.332319 0.622462 0.1146
H_ H_ 0.376575 0.0572355 0.60493 0.1146
H_ H_ 0.380618 0.298125 0.600321 0.1146
H_ H_ 0.0763594 0.220189 0.899728 0.42917
H_ H_ 0.0765169 0.471247 0.900933 0.42917
H_ H_ 0.328775 0.222509 0.896457 0.42917
H_ H_ 0.323977 0.472867 0.896778 0.42917
H_ H_ 0.107966 0.115662 0.525061 0.1146
H_ H_ 0.103603 0.370325 0.514888 0.1146
H_ H_ 0.355775 0.118032 0.521433 0.1146
H_ H_ 0.35255 0.36553 0.52038 0.1146
H_ H_ 0.229252 0.0391149 0.5553 0.1146
H_ H_ 0.234666 0.282763 0.557675 0.1146
H_ H_ 0.48128 0.0377723 0.553701 0.1146
H_ H_ 0.488474 0.28719 0.56164 0.1146
H_ H_ 0.242708 0.0256638 0.977271 0.1146
H_ H_ 0.247285 0.277131 0.973643 0.1146
H_ H_ 0.493901 0.0221878 0.98117 0.1146
H_ H_ 0.497247 0.277303 0.982735 0.1146
H_ H_ 0.125481 0.140079 0.700752 0.42917
H_ H_ 0.128746 0.375975 0.676502 0.42917
H_ H_ 0.381087 0.139349 0.697413 0.42917
H_ H_ 0.379998 0.412586 0.719418 0.42917
H_ H_ 0.0473337 0.126676 0.693374 0.1146
H_ H_ 0.0596333 0.375166 0.692105 0.1146
H_ H_ 0.302068 0.128796 0.69438 0.1146
H_ H_ 0.30433 0.381995 0.701075 0.1146
H_ H_ 0.0749443 0.185511 0.727846 0.1146
H_ H_ 0.0670835 0.433457 0.691302 0.1146
H_ H_ 0.374283 0.192548 0.688736 0.1146
H_ H_ 0.306254 0.43364 0.668423 0.1146
H_ H_ 0.104377 0.195456 0.688292 0.1146
H_ H_ 0.100484 0.438821 0.730869 0.1146
H_ H_ 0.324742 0.189536 0.69343 0.1146
H_ H_ 0.314851 0.438961 0.723506 0.1146
H_ H_ 0.049907 0.176082 0.675752 0.1146
H_ H_ 0.119046 0.443536 0.682812 0.1146
H_ H_ 0.350089 0.186523 0.735569 0.1146
H_ H_ 0.352458 0.45207 0.694761 0.1146
H_ H_ 0.118177 0.034336 0.862524 0.42917
H_ H_ 0.113964 0.280933 0.877377 0.42917
H_ H_ 0.365199 0.0320528 0.86041 0.42917
H_ H_ 0.362031 0.284136 0.85112 0.42917
H_ H_ 0.00610108 0.112758 0.770611 0.1146
H_ H_ -0.008781000000000039 0.354103 0.771694 0.1146
H_ H_ 0.244283 0.109165 0.765974 0.1146
H_ H_ 0.248539 0.358145 0.769483 0.1146
H_ H_ 0.0516371 0.0323008 0.801421 0.1146
H_ H_ 0.063575 0.291016 0.80599 0.1146
H_ H_ 0.305612 0.0391974 0.804281 0.1146
H_ H_ 0.314019 0.292236 0.805635 0.1146
H_ H_ 0.0188495 0.0176621 0.735604 0.1146
H_ H_ 0.0296334 0.271622 0.730337 0.1146
H_ H_ 0.272377 0.0204145 0.734029 0.1146
H_ H_ 0.27184 0.26873 0.734896 0.1146
H_ H_ 0.0485765 0.167083 0.944648 0.42917
H_ H_ 0.0526686 0.432049 0.955132 0.42917
H_ H_ 0.315033 0.177436 0.960451 0.42917
H_ H_ 0.309236 0.428316 0.964789 0.42917
H_ H_ 0.106 0.146919 0.936474 0.1146
H_ H_ 0.0942072 0.398013 0.939445 0.1146
H_ H_ 0.350334 0.142614 0.931132 0.1146
H_ H_ 0.346065 0.39592 0.942573 0.1146
H_ H_ 0.118226 0.194192 0.885549 0.1146
H_ H_ 0.144536 0.422805 0.898095 0.1146
H_ H_ 0.39315 0.168261 0.886206 0.1146
H_ H_ 0.393028 0.422821 0.897933 0.1146
H_ H_ 0.146285 0.17137 0.887098 0.1146
H_ H_ 0.141387 0.458311 0.93678 0.1146
H_ H_ 0.391185 0.204193 0.926305 0.1146
H_ H_ 0.391513 0.454097 0.940779 0.1146
H_ H_ 0.149073 0.206447 0.934923 0.1146
H_ H_ 0.121875 0.442402 0.881236 0.1146
H_ H_ 0.366717 0.189836 0.871516 0.1146
H_ H_ 0.369006 0.44678 0.891145 0.1146
H_ H_ 0.169638 0.0257638 0.597179 0.42917
H_ H_ 0.174419 0.275152 0.600692 0.42917
H_ H_ 0.423073 0.0297369 0.6017 0.42917
H_ H_ 0.429842 0.278888 0.592745 0.42917
H_ H_ 0.142483 0.136386 0.9768 0.1146
H_ H_ 0.13665 0.390636 0.980914 0.1146
H_ H_ 0.385829 0.137403 0.974324 0.1146
H_ H_ 0.388791 0.387267 0.979901 0.1146
H_ H_ 0.0177175 0.211357 0.942434 0.1146
H_ H_ 0.0100369 0.464169 0.939972 0.1146
H_ H_ 0.271784 0.2121 0.946797 0.1146
H_ H_ 0.260102 0.46528 0.945122 0.1146
H_ H_ 0.0125517 0.226074 0.526658 0.1146
H_ H_ 0.00363979 0.476023 0.518685 0.1146
H_ H_ 0.254686 0.226507 0.526462 0.1146
H_ H_ 0.251261 0.479805 0.519578 0.1146
H_ H_ 0.134972 0.123011 0.794693 0.42917
H_ H_ 0.128268 0.351349 0.791277 0.42917
H_ H_ 0.376467 0.127111 0.799494 0.42917
H_ H_ 0.382434 0.376036 0.816599 0.42917
H_ H_ 0.201284 0.125068 0.803154 0.1146
H_ H_ 0.197046 0.369737 0.808004 0.1146
H_ H_ 0.44368 0.125404 0.804281 0.1146
H_ H_ 0.452207 0.37516 0.808294 0.1146
H_ H_ 0.184997 0.0678639 0.827362 0.1146
H_ H_ 0.197356 0.316092 0.830409 0.1146
H_ H_ 0.399762 0.0690152 0.765081 0.1146
H_ H_ 0.427435 0.317782 0.770945 0.1146
H_ H_ 0.173129 0.063285 0.772907 0.1146
H_ H_ 0.170402 0.304098 0.779789 0.1146
H_ H_ 0.370564 0.0604527 0.810472 0.1146
H_ H_ 0.38969 0.308223 0.805473 0.1146
H_ H_ 0.134467 0.0574297 0.806571 0.1146
H_ H_ 0.145347 0.302071 0.827575 0.1146
H_ H_ 0.417169 0.0640347 0.808192 0.1146
H_ H_ 0.436971 0.315898 0.821673 0.1146
H_ H_ 0.127558 0.214482 0.62985 0.42917
H_ H_ 0.137058 0.463239 0.627429 0.42917
H_ H_ 0.385153 0.223991 0.631926 0.42917
H_ H_ 0.386103 0.465189 0.629827 0.42917
C_ C_ 0.23749 0.156151 0.723885 -0.12085
C_ C_ 0.240404 0.405626 0.724762 -0.12085
C_ C_ 0.485779 0.155469 0.725596 -0.12085
C_ C_ 0.487107 0.406411 0.726538 -0.12085
C_ C_ 0.0142556 0.197445 0.796792 0.6956
C_ C_ 0.0172742 0.446429 0.79905 0.6956
C_ C_ 0.26736 0.200565 0.798605 0.6956
C_ C_ 0.263472 0.446619 0.798546 0.6956
C_ C_ 0.243891 0.18774 0.755908 -0.16651
C_ C_ 0.242302 0.435531 0.755257 -0.16651
C_ C_ 0.488009 0.18731 0.759582 -0.16651
C_ C_ 0.492218 0.436635 0.759293 -0.16651
C_ C_ 0.203729 0.195915 0.705695 -0.12085
C_ C_ 0.205463 0.443435 0.702807 -0.12085
C_ C_ 0.456432 0.199753 0.70528 -0.12085
C_ C_ 0.454175 0.447561 0.709567 -0.12085
C_ C_ 0.218728 0.146743 0.682826 0.16698
C_ C_ 0.221675 0.395844 0.682656 0.16698
C_ C_ 0.46601 0.146906 0.6849 0.16698
C_ C_ 0.468825 0.398821 0.685589 0.16698
C_ C_ 0.17881 0.118429 0.625914 0.36401
C_ C_ 0.186409 0.368708 0.621913 0.36401
C_ C_ 0.433569 0.123681 0.623291 0.36401
C_ C_ 0.43481 0.373565 0.624594 0.36401
C_ C_ 0.200154 0.16543 0.67533 0.16698
C_ C_ 0.208346 0.416586 0.670899 0.16698
C_ C_ 0.447776 0.166754 0.678056 0.16698
C_ C_ 0.453238 0.420047 0.678321 0.16698
C_ C_ 0.226198 0.206746 0.744933 -0.12085
C_ C_ 0.221843 0.452877 0.744533 -0.12085
C_ C_ 0.471233 0.207325 0.749285 -0.12085
C_ C_ 0.474345 0.456418 0.750012 -0.12085
C_ C_ 0.150676 0.0881535 0.58807 0.15351
C_ C_ 0.15675 0.340324 0.586743 0.15351
C_ C_ 0.414343 0.0987832 0.579634 0.15351
C_ C_ 0.412082 0.3463 0.581198 0.15351
C_ C_ 0.1155 0.0615333 0.602509 -0.35079
C_ C_ 0.120323 0.317792 0.601252 -0.35079
C_ C_ 0.373864 0.0713406 0.583668 -0.35079
C_ C_ 0.376353 0.316958 0.589215 -0.35079
C_ C_ 0.0797354 0.101848 0.527208 -0.12085
C_ C_ 0.0806605 0.351452 0.524002 -0.12085
C_ C_ 0.328236 0.102146 0.528008 -0.12085
C_ C_ 0.329292 0.347281 0.52885 -0.12085
C_ C_ 0.065847 0.0582113 0.949937 0.6956
C_ C_ 0.061833 0.303311 0.947585 0.6956
C_ C_ 0.313348 0.0562979 0.946058 0.6956
C_ C_ 0.317497 0.307497 0.945714 0.6956
C_ C_ 0.053386 0.0715285 0.991411 -0.16651
C_ C_ 0.0504805 0.315073 0.990106 -0.16651
C_ C_ 0.30176 0.0685202 0.990287 -0.16651
C_ C_ 0.305945 0.320382 0.98954 -0.16651
C_ C_ 0.255914 0.0575285 0.547018 -0.12085
C_ C_ 0.258462 0.302399 0.549241 -0.12085
C_ C_ 0.507928 0.0566929 0.54539 -0.12085
C_ C_ 0.509472 0.30539 0.548242 -0.12085
C_ C_ 0.0659482 0.110202 0.567243 0.16698
C_ C_ 0.0676945 0.3595 0.563782 0.16698
C_ C_ 0.314819 0.1133 0.566661 0.16698
C_ C_ 0.318313 0.355322 0.569611 0.16698
C_ C_ 0.0612912 0.125113 0.633695 0.36401
C_ C_ 0.0660065 0.374283 0.630343 0.36401
C_ C_ 0.311894 0.128056 0.63431 0.36401
C_ C_ 0.314039 0.375166 0.636297 0.36401
C_ C_ 0.0312523 0.0876293 0.576434 0.16698
C_ C_ 0.033405 0.336531 0.57322 0.16698
C_ C_ 0.278255 0.0901634 0.575316 0.16698
C_ C_ 0.282793 0.335156 0.579355 0.16698
C_ C_ 0.0167635 0.0506823 0.00205893 -0.12085
C_ C_ 0.0164559 0.292702 0.00213196 -0.12085
C_ C_ 0.264268 0.0475376 0.0019599999999999618 -0.12085
C_ C_ 0.268237 0.299819 0.998684 -0.12085
C_ C_ 0.073642 0.142636 0.68048 0.15351
C_ C_ 0.0822349 0.38991 0.677824 0.15351
C_ C_ 0.327201 0.139415 0.678332 0.15351
C_ C_ 0.325204 0.396287 0.682542 0.15351
C_ C_ 0.0755085 0.176934 0.692868 -0.35079
C_ C_ 0.0938428 0.427976 0.696466 -0.35079
C_ C_ 0.344255 0.179326 0.698739 -0.35079
C_ C_ 0.325006 0.431249 0.691427 -0.35079
C_ C_ 0.0124858 0.0936665 0.775807 -0.12085
C_ C_ 0.00677793 0.34168 0.778344 -0.12085
C_ C_ 0.26 0.0942889 0.772904 -0.12085
C_ C_ 0.262764 0.345245 0.778324 -0.12085
C_ C_ 0.232563 0.0497128 0.697557 0.6956
C_ C_ 0.233424 0.299513 0.703255 0.6956
C_ C_ 0.486344 0.0563737 0.703008 0.6956
C_ C_ 0.482957 0.300961 0.700358 0.6956
C_ C_ 0.0069304 0.0622173 0.743566 -0.16651
C_ C_ 0.00781555 0.313312 0.745399 -0.16651
C_ C_ 0.254471 0.0619158 0.742004 -0.16651
C_ C_ 0.257556 0.312067 0.746597 -0.16651
C_ C_ 0.038117 0.0498419 0.796361 -0.12085
C_ C_ 0.0503873 0.305702 0.794538 -0.12085
C_ C_ 0.289909 0.0523278 0.79825 -0.12085
C_ C_ 0.297229 0.304438 0.797675 -0.12085
C_ C_ 0.0259262 0.0999495 0.819909 0.16698
C_ C_ 0.0308911 0.353235 0.81623 0.16698
C_ C_ 0.277432 0.101643 0.815907 0.16698
C_ C_ 0.285484 0.356922 0.816776 0.16698
C_ C_ 0.0678345 0.127881 0.877196 0.36401
C_ C_ 0.0634792 0.379733 0.877461 0.36401
C_ C_ 0.311523 0.126844 0.878452 0.36401
C_ C_ 0.315269 0.380336 0.879334 0.36401
C_ C_ 0.043359 0.0803442 0.828344 0.16698
C_ C_ 0.0520472 0.335866 0.824133 0.16698
C_ C_ 0.294782 0.082621 0.826472 0.16698
C_ C_ 0.303027 0.336927 0.825838 0.16698
C_ C_ 0.0222368 0.0425297 0.756511 -0.12085
C_ C_ 0.0286153 0.294777 0.753563 -0.12085
C_ C_ 0.273149 0.0433398 0.755582 -0.12085
C_ C_ 0.276056 0.292898 0.756852 -0.12085
C_ C_ 0.0931542 0.156365 0.917106 0.15351
C_ C_ 0.0867301 0.409998 0.91752 0.15351
C_ C_ 0.340711 0.156723 0.913401 0.15351
C_ C_ 0.336133 0.407693 0.920988 0.15351
C_ C_ 0.128235 0.18423 0.906006 -0.35079
C_ C_ 0.124946 0.436099 0.909011 -0.35079
C_ C_ 0.373978 0.180635 0.898474 -0.35079
C_ C_ 0.373341 0.434035 0.911282 -0.35079
C_ C_ 0.173215 0.151044 0.976151 -0.12085
C_ C_ 0.166082 0.401489 0.975999 -0.12085
C_ C_ 0.416947 0.150088 0.972771 -0.12085
C_ C_ 0.419819 0.399622 0.97578 -0.12085
C_ C_ 0.180143 0.194742 0.55162 0.6956
C_ C_ 0.194175 0.443964 0.551904 0.6956
C_ C_ 0.432728 0.196811 0.551144 0.6956
C_ C_ 0.435637 0.441347 0.551694 0.6956
C_ C_ 0.194286 0.184462 0.509037 -0.16651
C_ C_ 0.202169 0.43309 0.507184 -0.16651
C_ C_ 0.445676 0.184988 0.50771 -0.16651
C_ C_ 0.443357 0.429977 0.50695 -0.16651
C_ C_ 0.993029 0.194341 0.953561 -0.12085
C_ C_ 0.988772 0.445594 0.95253 -0.12085
C_ C_ 0.246293 0.194628 0.957329 -0.12085
C_ C_ 0.238442 0.445411 0.95561 -0.12085
C_ C_ 0.186893 0.140126 0.935664 0.16698
C_ C_ 0.181144 0.391111 0.935927 0.16698
C_ C_ 0.429564 0.137609 0.935075 0.16698
C_ C_ 0.431998 0.391125 0.934754 0.16698
C_ C_ 0.186845 0.129063 0.86717 0.36401
C_ C_ 0.186559 0.371351 0.87216 0.36401
C_ C_ 0.43195 0.125484 0.869225 0.36401
C_ C_ 0.436311 0.376801 0.869144 0.36401
C_ C_ 0.223414 0.161983 0.927883 0.16698
C_ C_ 0.218013 0.411756 0.929012 0.16698
C_ C_ 0.466278 0.157921 0.928664 0.16698
C_ C_ 0.469803 0.411069 0.926874 0.16698
C_ C_ 0.233743 0.203216 0.501961 -0.12085
C_ C_ 0.23651 0.455951 0.497786 -0.12085
C_ C_ 0.480296 0.208257 0.496583 -0.12085
C_ C_ 0.479318 0.451179 0.496145 -0.12085
C_ C_ 0.177036 0.111436 0.818965 0.15351
C_ C_ 0.175384 0.354426 0.824415 0.15351
C_ C_ 0.418304 0.114092 0.82098 0.15351
C_ C_ 0.426597 0.360201 0.821833 0.15351
C_ C_ 0.166385 0.0722622 0.804559 -0.35079
C_ C_ 0.172792 0.317699 0.8144 -0.35079
C_ C_ 0.3992 0.074073 0.798492 -0.35079
C_ C_ 0.42005 0.323455 0.802505 -0.35079
N_ N_ 0.203416 0.11433 0.651975 -0.51457
N_ N_ 0.208079 0.364447 0.652664 -0.51457
N_ N_ 0.457509 0.119 0.649734 -0.51457
N_ N_ 0.45833 0.36928 0.651437 -0.51457
N_ N_ 0.175629 0.149138 0.639932 -0.51457
N_ N_ 0.184267 0.400777 0.635304 -0.51457
N_ N_ 0.428369 0.154164 0.639198 -0.51457
N_ N_ 0.430359 0.404064 0.640387 -0.51457
N_ N_ 0.0871468 0.133956 0.604021 -0.51457
N_ N_ 0.0900488 0.383597 0.600327 -0.51457
N_ N_ 0.338082 0.137521 0.604276 -0.51457
N_ N_ 0.340096 0.38311 0.605808 -0.51457
N_ N_ 0.0267177 0.0959716 0.618046 -0.51457
N_ N_ 0.0313898 0.345525 0.615302 -0.51457
N_ N_ 0.275908 0.0995408 0.615865 -0.51457
N_ N_ 0.27807 0.346129 0.620537 -0.51457
N_ N_ 0.0416005 0.13177 0.851535 -0.51457
N_ N_ 0.038842 0.38178 0.85064 -0.51457
N_ N_ 0.287361 0.129946 0.850475 -0.51457
N_ N_ 0.292793 0.384791 0.850302 -0.51457
N_ N_ 0.0706692 0.0969091 0.863888 -0.51457
N_ N_ 0.0732143 0.351788 0.863536 -0.51457
N_ N_ 0.314378 0.0972538 0.865171 -0.51457
N_ N_ 0.321727 0.351763 0.86595 -0.51457
N_ N_ 0.163348 0.118694 0.897189 -0.51457
N_ N_ 0.160725 0.364151 0.90034 -0.51457
N_ N_ 0.406267 0.115923 0.89776 -0.51457
N_ N_ 0.409755 0.367486 0.898191 -0.51457
N_ N_ 0.22407 0.154726 0.885359 -0.51457
N_ N_ 0.222531 0.399714 0.888158 -0.51457
N_ N_ 0.468278 0.152745 0.886828 -0.51457
N_ N_ 0.472257 0.404636 0.885746 -0.51457
O_ O_ 0.0188411 0.226141 0.823409 -0.61362
O_ O_ 0.0143705 0.473039 0.82659 -0.61362
O_ O_ 0.269249 0.229233 0.82462 -0.61362
O_ O_ 0.269747 0.477429 0.82595 -0.61362
O_ O_ 0.0568794 0.215323 0.881272 -0.98607
O_ O_ 0.0569438 0.465457 0.880914 -0.98607
O_ O_ 0.307667 0.21765 0.881383 -0.98607
O_ O_ 0.301376 0.465884 0.884062 -0.98607
O_ O_ 0.0142877 0.17416 0.810193 -0.61362
O_ O_ 0.02494 0.424892 0.811574 -0.61362
O_ O_ 0.275699 0.17854 0.811411 -0.61362
O_ O_ 0.27255 0.425026 0.810332 -0.61362
O_ O_ 0.16754 0.0713333 0.564988 -0.55956
O_ O_ 0.172106 0.320754 0.565126 -0.55956
O_ O_ 0.434618 0.0842476 0.559799 -0.55956
O_ O_ 0.432608 0.333589 0.55981 -0.55956
O_ O_ 0.0461277 0.0262532 0.925599 -0.61362
O_ O_ 0.037779 0.272428 0.919902 -0.61362
O_ O_ 0.290914 0.0241536 0.917946 -0.61362
O_ O_ 0.293973 0.276438 0.919132 -0.61362
O_ O_ 0.0971809 0.0374671 0.870832 -0.98607
O_ O_ 0.0927862 0.284073 0.874871 -0.98607
O_ O_ 0.343504 0.0345182 0.866703 -0.98607
O_ O_ 0.3426 0.28699 0.864581 -0.98607
O_ O_ 0.0932734 0.0808865 0.935305 -0.61362
O_ O_ 0.0919234 0.32585 0.936525 -0.61362
O_ O_ 0.344423 0.0771378 0.935668 -0.61362
O_ O_ 0.350924 0.326788 0.936802 -0.61362
O_ O_ 0.103184 0.141844 0.700515 -0.55956
O_ O_ 0.110586 0.383386 0.687203 -0.55956
O_ O_ 0.357253 0.132838 0.685337 -0.55956
O_ O_ 0.360279 0.401749 0.697763 -0.55956
O_ O_ 0.231823 0.0216077 0.669803 -0.61362
O_ O_ 0.229761 0.270188 0.675606 -0.61362
O_ O_ 0.479387 0.0263925 0.6758 -0.61362
O_ O_ 0.473727 0.269101 0.674504 -0.61362
O_ O_ 0.188127 0.0313261 0.616806 -0.98607
O_ O_ 0.191402 0.280061 0.621605 -0.98607
O_ O_ 0.443798 0.0363694 0.619795 -0.98607
O_ O_ 0.444644 0.28558 0.615747 -0.98607
O_ O_ 0.218566 0.0688731 0.687265 -0.61362
O_ O_ 0.228472 0.322085 0.690495 -0.61362
O_ O_ 0.482878 0.0798701 0.689732 -0.61362
O_ O_ 0.481333 0.325178 0.687301 -0.61362
O_ O_ 0.0726417 0.169964 0.939089 -0.55956
O_ O_ 0.065912 0.42545 0.935235 -0.55956
O_ O_ 0.324188 0.174144 0.936202 -0.55956
O_ O_ 0.31508 0.420669 0.939899 -0.55956
O_ O_ 0.200815 0.225759 0.579811 -0.61362
O_ O_ 0.215144 0.476197 0.579116 -0.61362
O_ O_ 0.458174 0.22538 0.577279 -0.61362
O_ O_ 0.457427 0.473032 0.577153 -0.61362
O_ O_ 0.147601 0.210338 0.630852 -0.98607
O_ O_ 0.158541 0.460869 0.623802 -0.98607
O_ O_ 0.405041 0.218372 0.628065 -0.98607
O_ O_ 0.407343 0.462849 0.628191 -0.98607
O_ O_ 0.153634 0.171024 0.564887 -0.61362
O_ O_ 0.166306 0.420779 0.562861 -0.61362
O_ O_ 0.401824 0.174445 0.563988 -0.61362
O_ O_ 0.406663 0.419023 0.56443 -0.61362
O_ O_ 0.145872 0.112425 0.804844 -0.55956
O_ O_ 0.144122 0.354587 0.81168 -0.55956
O_ O_ 0.39386 0.125824 0.816215 -0.55956
O_ O_ 0.397266 0.365617 0.811719 -0.55956
Zn Zn 0.0246853 0.673369 0.361688 0.91541
Zn Zn 0.0265042 0.924701 0.363658 0.91541
Zn Zn 0.272557 0.672751 0.364455 0.91541
Zn Zn 0.275154 0.922181 0.362478 0.91541
Zn Zn 0.101726 0.579834 0.38658 0.91541
Zn Zn 0.103264 0.829599 0.384254 0.91541
Zn Zn 0.352347 0.580324 0.385485 0.91541
Zn Zn 0.357011 0.832548 0.386974 0.91541
Zn Zn 0.221034 0.572474 0.137332 0.91541
Zn Zn 0.222331 0.826406 0.134189 0.91541
Zn Zn 0.475977 0.578197 0.14192 0.91541
Zn Zn 0.476265 0.826763 0.137219 0.91541
Zn Zn 0.146012 0.670172 0.109112 0.91541
Zn Zn 0.14342 0.918475 0.113884 0.91541
Zn Zn 0.394378 0.670256 0.114956 0.91541
Zn Zn 0.397888 0.918321 0.114126 0.91541
Zn Zn 0.0531794 0.49966 0.372808 1.11764
Zn Zn 0.0498037 0.749292 0.373913 1.11764
Zn Zn 0.302596 0.49974 0.370609 1.11764
Zn Zn 0.305771 0.754471 0.375885 1.11764
Zn Zn 0.196113 0.995932 0.124938 1.11764
Zn Zn 0.19907 0.750346 0.123247 1.11764
Zn Zn 0.449097 -0.0030879999999999797 0.12632 1.11764
Zn Zn 0.446895 0.747312 0.124538 1.11764
H_ H_ 0.247902 0.638745 0.230604 0.1146
H_ H_ 0.255705 0.891139 0.223712 0.1146
H_ H_ 0.491247 0.634552 0.233469 0.1146
H_ H_ 0.502647 0.889479 0.229512 0.1146
H_ H_ 0.185898 0.706523 0.196537 0.1146
H_ H_ 0.20498 0.96296 0.187657 0.1146
H_ H_ 0.441853 0.708195 0.195549 0.1146
H_ H_ 0.433638 0.953121 0.195547 0.1146
H_ H_ 0.228702 0.729357 0.263787 0.1146
H_ H_ 0.240175 0.982142 0.264565 0.1146
H_ H_ 0.469096 0.723551 0.269593 0.1146
H_ H_ 0.466445 0.970712 0.268903 0.1146
H_ H_ 0.182225 0.570923 0.0317639 0.42917
H_ H_ 0.242696 0.879862 0.0591622 0.42917
H_ H_ 0.435487 0.571269 0.0387679 0.42917
H_ H_ 0.43388 0.814493 0.0369981 0.42917
H_ H_ 0.154666 0.609438 0.0619179 0.1146
H_ H_ 0.167889 0.868178 0.0512475 0.1146
H_ H_ 0.397252 0.602267 0.0615811 0.1146
H_ H_ 0.39946 0.851064 0.0627902 0.1146
H_ H_ 0.102085 0.577298 0.105429 0.1146
H_ H_ 0.156473 0.811924 0.0155457 0.1146
H_ H_ 0.355116 0.58283 0.113759 0.1146
H_ H_ 0.344022 0.815719 0.0964805 0.1146
H_ H_ 0.099259 0.549214 0.0528119 0.1146
H_ H_ 0.17823 0.807281 0.0594415 0.1146
H_ H_ 0.351478 0.54866 0.0640073 0.1146
H_ H_ 0.355883 0.785902 0.0583174 0.1146
H_ H_ 0.122708 0.548665 0.0988821 0.1146
H_ H_ 0.133032 0.811836 0.0658425 0.1146
H_ H_ 0.375836 0.556803 0.116835 0.1146
H_ H_ 0.377635 0.799755 0.110434 0.1146
H_ H_ 0.0784022 0.724164 0.400552 0.42917
H_ H_ 0.0767711 0.973718 0.402522 0.42917
H_ H_ 0.329511 0.719844 0.390922 0.42917
H_ H_ 0.329901 0.974977 0.398146 0.42917
H_ H_ 0.108918 0.610685 0.0243831 0.1146
H_ H_ 0.110744 0.860443 0.0288104 0.1146
H_ H_ 0.355935 0.616616 0.021335 0.1146
H_ H_ 0.356913 0.858591 0.0208965 0.1146
H_ H_ 0.232652 0.533135 0.0544148 0.1146
H_ H_ 0.234142 0.785279 0.0580711 0.1146
H_ H_ 0.490422 0.533963 0.0651456 0.1146
H_ H_ 0.482448 0.787446 0.0495491 0.1146
H_ H_ 0.245631 0.522867 0.478804 0.1146
H_ H_ 0.247487 0.769784 0.479435 0.1146
H_ H_ 0.494055 0.524423 0.483117 0.1146
H_ H_ 0.492383 0.77 0.481887 0.1146
H_ H_ 0.118914 0.620943 0.179911 0.42917
H_ H_ 0.0965493 0.852951 0.181343 0.42917
H_ H_ 0.371214 0.638574 0.183264 0.42917
H_ H_ 0.368535 0.871807 0.191136 0.42917
H_ H_ 0.0514281 0.62744 0.197541 0.1146
H_ H_ 0.047059 0.878776 0.195765 0.1146
H_ H_ 0.290965 0.627302 0.193221 0.1146
H_ H_ 0.30419 0.874228 0.198185 0.1146
H_ H_ 0.115631 0.692538 0.189948 0.1146
H_ H_ 0.0883661 0.941771 0.192169 0.1146
H_ H_ 0.317985 0.683403 0.224587 0.1146
H_ H_ 0.326975 0.933824 0.230663 0.1146
H_ H_ 0.0674841 0.687769 0.199057 0.1146
H_ H_ 0.0984094 0.928709 0.237059 0.1146
H_ H_ 0.358231 0.697048 0.192395 0.1146
H_ H_ 0.364423 0.943732 0.197623 0.1146
H_ H_ 0.0967637 0.684222 0.237064 0.1146
H_ H_ 0.128893 0.927486 0.189932 0.1146
H_ H_ 0.305593 0.684381 0.173952 0.1146
H_ H_ 0.318081 0.933767 0.180549 0.1146
H_ H_ 0.115315 0.533366 0.373875 0.42917
H_ H_ 0.110232 0.781237 0.36164 0.42917
H_ H_ 0.361842 0.531427 0.354754 0.42917
H_ H_ 0.363312 0.782884 0.357114 0.42917
H_ H_ 0.997576 0.610485 0.272023 0.1146
H_ H_ 1.00586 0.863683 0.268819 0.1146
H_ H_ 0.241911 0.609412 0.277808 0.1146
H_ H_ 0.251342 0.861265 0.267566 0.1146
H_ H_ 0.0583566 0.540206 0.308144 0.1146
H_ H_ 0.0682386 0.79656 0.304592 0.1146
H_ H_ 0.294926 0.535569 0.312995 0.1146
H_ H_ 0.32252 0.797142 0.297935 0.1146
H_ H_ 0.0175423 0.518107 0.233549 0.1146
H_ H_ 0.0246514 0.772369 0.235413 0.1146
H_ H_ 0.270435 0.519103 0.238937 0.1146
H_ H_ 0.278137 0.772223 0.231138 0.1146
H_ H_ 0.0762757 0.685089 0.458603 0.42917
H_ H_ 0.0623597 0.933565 0.457554 0.42917
H_ H_ 0.301459 0.674259 0.450175 0.42917
H_ H_ 0.306081 0.920891 0.461638 0.42917
H_ H_ 0.109985 0.649719 0.430278 0.1146
H_ H_ 0.0997744 0.899957 0.439093 0.1146
H_ H_ 0.345035 0.64443 0.439891 0.1146
H_ H_ 0.352588 0.898414 0.442301 0.1146
H_ H_ 0.120674 0.691891 0.369492 0.1146
H_ H_ 0.154794 0.952656 0.435866 0.1146
H_ H_ 0.400274 0.673976 0.395197 0.1146
H_ H_ 0.368046 0.945375 0.385744 0.1146
H_ H_ 0.153067 0.676124 0.386201 0.1146
H_ H_ 0.129802 0.95094 0.386689 0.1146
H_ H_ 0.394423 0.703115 0.44272 0.1146
H_ H_ 0.398426 0.927951 0.402431 0.1146
H_ H_ 0.144774 0.705819 0.423582 0.1146
H_ H_ 0.143328 0.917847 0.382028 0.1146
H_ H_ 0.370097 0.693503 0.387261 0.1146
H_ H_ 0.39546 0.961668 0.44028 0.1146
H_ H_ 0.163886 0.524927 0.112528 0.42917
H_ H_ 0.166535 0.773958 0.103638 0.42917
H_ H_ 0.42303 0.528875 0.101161 0.42917
H_ H_ 0.428036 0.775396 0.0934197 0.42917
H_ H_ 0.14139 0.637094 0.477796 0.1146
H_ H_ 0.136277 0.88716 0.478538 0.1146
H_ H_ 0.391605 0.635465 0.479918 0.1146
H_ H_ 0.398438 0.884976 0.48311 0.1146
H_ H_ 0.0196917 0.71215 0.449099 0.1146
H_ H_ 0.0150426 0.96554 0.441116 0.1146
H_ H_ 0.26996 0.707452 0.43883 0.1146
H_ H_ 0.272215 0.957069 0.455741 0.1146
H_ H_ 1.00184009 0.732066 0.0203842 0.1146
H_ H_ 0.00623834 0.983933 0.0184905 0.1146
H_ H_ 0.252798 0.728315 0.0154922 0.1146
H_ H_ 0.248992 0.975732 0.0149174 0.1146
H_ H_ 0.117174 0.610971 0.289693 0.42917
H_ H_ 0.123763 0.851317 0.302474 0.42917
H_ H_ 0.37277 0.621583 0.303156 0.42917
H_ H_ 0.388722 0.885024 0.31293 0.42917
H_ H_ 0.190599 0.623122 0.297611 0.1146
H_ H_ 0.197497 0.868517 0.306803 0.1146
H_ H_ 0.44429 0.624904 0.30291 0.1146
H_ H_ 0.45151 0.877578 0.305178 0.1146
H_ H_ 0.172912 0.562908 0.313498 0.1146
H_ H_ 0.180152 0.802275 0.276176 0.1146
H_ H_ 0.414907 0.56076 0.312465 0.1146
H_ H_ 0.388951 0.810541 0.308465 0.1146
H_ H_ 0.151356 0.561965 0.266278 0.1146
H_ H_ 0.169015 0.802738 0.331165 0.1146
H_ H_ 0.41017 0.56983 0.262369 0.1146
H_ H_ 0.43904 0.820205 0.301529 0.1146
H_ H_ 0.122812 0.55533 0.307903 0.1146
H_ H_ 0.213196 0.825251 0.325056 0.1146
H_ H_ 0.369102 0.559434 0.295185 0.1146
H_ H_ 0.403623 0.819786 0.261331 0.1146
H_ H_ 0.143964 0.721073 0.140384 0.42917
H_ H_ 0.141575 0.970346 0.150609 0.42917
H_ H_ 0.385105 0.719316 0.129796 0.42917
H_ H_ 0.385921 0.963757 0.137575 0.42917
C_ C_ 0.240144 0.65632 0.222473 -0.12085
C_ C_ 0.237085 0.90427 0.220892 -0.12085
C_ C_ 0.484581 0.652303 0.224897 -0.12085
C_ C_ 0.491587 0.904437 0.221202 -0.12085
C_ C_ 0.0153921 0.699274 0.295571 0.6956
C_ C_ 0.0142619 0.948072 0.299254 0.6956
C_ C_ 0.259552 0.697102 0.298831 0.6956
C_ C_ 0.261632 0.945876 0.29759 0.6956
C_ C_ 0.242498 0.686369 0.252914 -0.16651
C_ C_ 0.240607 0.934532 0.254816 -0.16651
C_ C_ 0.488096 0.682936 0.257583 -0.16651
C_ C_ 0.494013 0.934915 0.253477 -0.16651
C_ C_ 0.202594 0.69356 0.201634 -0.12085
C_ C_ 0.205855 0.944656 0.201012 -0.12085
C_ C_ 0.458512 0.696332 0.204418 -0.12085
C_ C_ 0.452969 0.942424 0.201962 -0.12085
C_ C_ 0.216119 0.644663 0.181554 0.16698
C_ C_ 0.209441 0.891289 0.184348 0.16698
C_ C_ 0.470346 0.64587 0.182527 0.16698
C_ C_ 0.468725 0.893719 0.181108 0.16698
C_ C_ 0.182113 0.620148 0.120139 0.36401
C_ C_ 0.185361 0.87241 0.117392 0.36401
C_ C_ 0.43543 0.62193 0.120413 0.36401
C_ C_ 0.430366 0.86632 0.12284 0.36401
C_ C_ 0.200039 0.664538 0.172171 0.16698
C_ C_ 0.194328 0.912126 0.175598 0.16698
C_ C_ 0.455065 0.666232 0.173003 0.16698
C_ C_ 0.451342 0.912665 0.171039 0.16698
C_ C_ 0.224198 0.705579 0.241812 -0.12085
C_ C_ 0.229363 0.956946 0.240867 -0.12085
C_ C_ 0.472189 0.703384 0.245995 -0.12085
C_ C_ 0.470582 0.951628 0.242952 -0.12085
C_ C_ 0.15839 0.593267 0.0793035 0.15351
C_ C_ 0.184221 0.858684 0.0689593 0.15351
C_ C_ 0.40804 0.59147 0.0817517 0.15351
C_ C_ 0.407732 0.837555 0.0811398 0.15351
C_ C_ 0.118777 0.565637 0.0837056 -0.35079
C_ C_ 0.160517 0.819405 0.0507176 -0.35079
C_ C_ 0.37066 0.567783 0.0927781 -0.35079
C_ C_ 0.368684 0.808636 0.0879537 -0.35079
C_ C_ 0.0797771 0.594752 0.0274907 -0.12085
C_ C_ 0.0794102 0.845344 0.0284377 -0.12085
C_ C_ 0.329534 0.597593 0.0265648 -0.12085
C_ C_ 0.326667 0.844586 0.0251084 -0.12085
C_ C_ 0.064431 0.548666 0.448476 0.6956
C_ C_ 0.0598172 0.80512 0.445366 0.6956
C_ C_ 0.313327 0.553224 0.447627 0.6956
C_ C_ 0.313612 0.805698 0.447731 0.6956
C_ C_ 0.0539071 0.561343 0.492236 -0.16651
C_ C_ 0.0500572 0.817282 0.490524 -0.16651
C_ C_ 0.302695 0.564454 0.49205 -0.16651
C_ C_ 0.300309 0.817936 0.491177 -0.16651
C_ C_ 0.259277 0.552385 0.0469409 -0.12085
C_ C_ 0.254916 0.802849 0.0458103 -0.12085
C_ C_ 0.506416 0.553665 0.0498281 -0.12085
C_ C_ 0.507806 0.805789 0.0411172 -0.12085
C_ C_ 0.0652016 0.606999 0.0653654 0.16698
C_ C_ 0.0645568 0.857535 0.0658257 0.16698
C_ C_ 0.31446 0.60714 0.0668246 0.16698
C_ C_ 0.316503 0.855629 0.065623 0.16698
C_ C_ 0.063134 0.624597 0.132166 0.36401
C_ C_ 0.0605101 0.874179 0.131606 0.36401
C_ C_ 0.308573 0.624425 0.132173 0.36401
C_ C_ 0.314161 0.873256 0.133058 0.36401
C_ C_ 0.0309228 0.5858 0.0733231 0.16698
C_ C_ 0.0265416 0.837693 0.0721327 0.16698
C_ C_ 0.278478 0.584365 0.0735282 0.16698
C_ C_ 0.27973 0.835187 0.0741733 0.16698
C_ C_ 0.0179323 0.53964 0.503661 -0.12085
C_ C_ 0.0152861 0.795096 0.501808 -0.12085
C_ C_ 0.266192 0.545798 0.501387 -0.12085
C_ C_ 0.265917 0.795344 0.503063 -0.12085
C_ C_ 0.077874 0.63897 0.180736 0.15351
C_ C_ 0.0733887 0.885792 0.178018 0.15351
C_ C_ 0.319668 0.641242 0.179562 0.15351
C_ C_ 0.327822 0.887901 0.181094 0.15351
C_ C_ 0.0892839 0.677511 0.202638 -0.35079
C_ C_ 0.100696 0.92363 0.200534 -0.35079
C_ C_ 0.326519 0.67816 0.19226 -0.35079
C_ C_ 0.335738 0.925785 0.197501 -0.35079
C_ C_ 0.00659768 0.591412 0.278286 -0.12085
C_ C_ 0.0134428 0.84505 0.276711 -0.12085
C_ C_ 0.256551 0.594123 0.281991 -0.12085
C_ C_ 0.267819 0.846823 0.272574 -0.12085
C_ C_ 0.231877 0.550253 0.205147 0.6956
C_ C_ 0.240665 0.802944 0.197402 0.6956
C_ C_ 0.481824 0.551064 0.20377 0.6956
C_ C_ 0.485537 0.803628 0.203443 0.6956
C_ C_ 0.00169674 0.559872 0.247211 -0.16651
C_ C_ 0.0084709 0.814337 0.245756 -0.16651
C_ C_ 0.251959 0.562158 0.249671 -0.16651
C_ C_ 0.262137 0.814967 0.241506 -0.16651
C_ C_ 0.0408149 0.552128 0.299784 -0.12085
C_ C_ 0.0456226 0.805081 0.298217 -0.12085
C_ C_ 0.285129 0.55161 0.30314 -0.12085
C_ C_ 0.303186 0.808092 0.293406 -0.12085
C_ C_ 0.024109 0.600707 0.319836 0.16698
C_ C_ 0.0288804 0.852948 0.319623 0.16698
C_ C_ 0.273478 0.601545 0.323995 0.16698
C_ C_ 0.287377 0.857032 0.315759 0.16698
C_ C_ 0.0691808 0.629931 0.374891 0.36401
C_ C_ 0.0680572 0.882263 0.377756 0.36401
C_ C_ 0.313394 0.629277 0.380949 0.36401
C_ C_ 0.316908 0.880166 0.381393 0.36401
C_ C_ 0.0399567 0.581008 0.329946 0.16698
C_ C_ 0.0430634 0.832177 0.330606 0.16698
C_ C_ 0.287634 0.580496 0.333061 0.16698
C_ C_ 0.304006 0.837353 0.324597 0.16698
C_ C_ 0.020529 0.541073 0.257921 -0.12085
C_ C_ 0.026971 0.795162 0.256609 -0.12085
C_ C_ 0.267349 0.541143 0.262062 -0.12085
C_ C_ 0.280966 0.796425 0.253235 -0.12085
C_ C_ 0.0971062 0.659639 0.41043 0.15351
C_ C_ 0.0939525 0.911979 0.415926 0.15351
C_ C_ 0.340134 0.657754 0.417872 0.15351
C_ C_ 0.341961 0.908795 0.420868 0.15351
C_ C_ 0.13013 0.685192 0.394526 -0.35079
C_ C_ 0.133735 0.935152 0.403702 -0.35079
C_ C_ 0.378586 0.683074 0.409548 -0.35079
C_ C_ 0.377441 0.938327 0.41255 -0.35079
C_ C_ 0.171219 0.652193 0.471513 -0.12085
C_ C_ 0.166393 0.900414 0.474054 -0.12085
C_ C_ 0.422819 0.647704 0.475323 -0.12085
C_ C_ 0.424748 0.902736 0.477046 -0.12085
C_ C_ 0.187866 0.693878 0.052096 0.6956
C_ C_ 0.185356 0.941514 0.0485391 0.6956
C_ C_ 0.435928 0.693579 0.0529396 0.6956
C_ C_ 0.43253 0.941623 0.0508124 0.6956
C_ C_ 0.200406 0.681506 0.00886208 -0.16651
C_ C_ 0.194675 0.930393 0.00293994 -0.16651
C_ C_ 0.445069 0.682942 0.00802691 -0.16651
C_ C_ 0.44361 0.931363 0.00580887 -0.16651
C_ C_ 0.996212 0.692882 0.458097 -0.12085
C_ C_ 0.990192 0.947963 0.451653 -0.12085
C_ C_ 0.2411 0.693726 0.44843 -0.12085
C_ C_ 0.244043 0.93967 0.459838 -0.12085
C_ C_ 0.181139 0.640013 0.431094 0.16698
C_ C_ 0.17999 0.890063 0.435202 0.16698
C_ C_ 0.435207 0.638553 0.434281 0.16698
C_ C_ 0.43808 0.89275 0.436882 0.16698
C_ C_ 0.181695 0.624756 0.364733 0.36401
C_ C_ 0.186078 0.872928 0.36868 0.36401
C_ C_ 0.435589 0.6251 0.367153 0.36401
C_ C_ 0.439381 0.877534 0.369955 0.36401
C_ C_ 0.217071 0.660546 0.421247 0.16698
C_ C_ 0.217981 0.910082 0.428212 0.16698
C_ C_ 0.471811 0.658263 0.426414 0.16698
C_ C_ 0.473148 0.915004 0.428433 0.16698
C_ C_ 0.234429 0.702776 0.995469 -0.12085
C_ C_ 0.229 0.951195 0.990801 -0.12085
C_ C_ 0.479576 0.705621 0.996604 -0.12085
C_ C_ 0.481524 0.951734 0.997344 -0.12085
C_ C_ 0.166154 0.610392 0.316586 0.15351
C_ C_ 0.175594 0.851349 0.321447 0.15351
C_ C_ 0.421186 0.613106 0.320851 0.15351
C_ C_ 0.426781 0.863768 0.32033 0.15351
C_ C_ 0.1518 0.571161 0.299539 -0.35079
C_ C_ 0.182537 0.818229 0.310313 -0.35079
C_ C_ 0.402649 0.574537 0.296495 -0.35079
C_ C_ 0.415127 0.826502 0.295816 -0.35079
N_ N_ 0.204115 0.614043 0.149844 -0.51457
N_ N_ 0.203365 0.864931 0.147491 -0.51457
N_ N_ 0.45624 0.615884 0.148639 -0.51457
N_ N_ 0.455583 0.86274 0.14925 -0.51457
N_ N_ 0.175843 0.648578 0.134334 -0.51457
N_ N_ 0.17847 0.900715 0.133746 -0.51457
N_ N_ 0.431625 0.651993 0.134527 -0.51457
N_ N_ 0.428313 0.896981 0.135111 -0.51457
N_ N_ 0.087149 0.633041 0.101862 -0.51457
N_ N_ 0.0868174 0.882664 0.103208 -0.51457
N_ N_ 0.335819 0.633266 0.103667 -0.51457
N_ N_ 0.340438 0.879282 0.1025 -0.51457
N_ N_ 0.0266775 0.595687 0.115424 -0.51457
N_ N_ 0.0249943 0.846086 0.114756 -0.51457
N_ N_ 0.274016 0.594451 0.114723 -0.51457
N_ N_ 0.276489 0.846253 0.115296 -0.51457
N_ N_ 0.0430114 0.634179 0.348047 -0.51457
N_ N_ 0.0447221 0.8856 0.349722 -0.51457
N_ N_ 0.28728 0.63208 0.355249 -0.51457
N_ N_ 0.296175 0.885861 0.352128 -0.51457
N_ N_ 0.066769 0.596914 0.365244 -0.51457
N_ N_ 0.0699456 0.850583 0.36641 -0.51457
N_ N_ 0.317406 0.599151 0.36733 -0.51457
N_ N_ 0.323325 0.850545 0.365166 -0.51457
N_ N_ 0.158434 0.614898 0.394803 -0.51457
N_ N_ 0.158117 0.865159 0.397185 -0.51457
N_ N_ 0.410332 0.616422 0.396476 -0.51457
N_ N_ 0.414873 0.867548 0.400178 -0.51457
N_ N_ 0.216365 0.65402 0.379182 -0.51457
N_ N_ 0.221287 0.900513 0.385813 -0.51457
N_ N_ 0.472755 0.649875 0.38496 -0.51457
N_ N_ 0.474413 0.905991 0.387365 -0.51457
O_ O_ 0.0241116 0.730965 0.322277 -0.61362
O_ O_ 0.0250485 0.98002 0.324833 -0.61362
O_ O_ 0.27867 0.729925 0.323108 -0.61362
O_ O_ 0.276886 0.97868 0.324138 -0.61362
O_ O_ 0.0574195 0.717256 0.381814 -0.98607
O_ O_ 0.0555725 0.968516 0.385783 -0.98607
O_ O_ 0.305932 0.717096 0.382078 -0.98607
O_ O_ 0.308209 0.967996 0.383195 -0.98607
O_ O_ 0.0163446 0.675923 0.309194 -0.61362
O_ O_ 0.0191604 0.925085 0.311264 -0.61362
O_ O_ 0.263106 0.673462 0.310958 -0.61362
O_ O_ 0.266392 0.923139 0.3092 -0.61362
O_ O_ 0.17928 0.579643 0.0582984 -0.55956
O_ O_ 0.218423 0.865048 0.056283 -0.55956
O_ O_ 0.426643 0.574317 0.0619264 -0.55956
O_ O_ 0.428265 0.824028 0.0615881 -0.55956
O_ O_ 0.0403166 0.519407 0.42137 -0.61362
O_ O_ 0.0352662 0.774559 0.416762 -0.61362
O_ O_ 0.293043 0.521386 0.420074 -0.61362
O_ O_ 0.291538 0.77458 0.42266 -0.61362
O_ O_ 0.095242 0.537439 0.375135 -0.98607
O_ O_ 0.0914084 0.786497 0.37294 -0.98607
O_ O_ 0.343997 0.536265 0.366772 -0.98607
O_ O_ 0.34617 0.78902 0.369671 -0.98607
O_ O_ 0.0927764 0.57231 0.43636 -0.61362
O_ O_ 0.0944417 0.824866 0.437296 -0.61362
O_ O_ 0.335625 0.578204 0.433804 -0.61362
O_ O_ 0.345524 0.82671 0.435708 -0.61362
O_ O_ 0.105682 0.632188 0.189484 -0.55956
O_ O_ 0.0935019 0.870597 0.1841 -0.55956
O_ O_ 0.349506 0.638538 0.192817 -0.55956
O_ O_ 0.358686 0.885722 0.191005 -0.55956
O_ O_ 0.220266 0.518422 0.181602 -0.61362
O_ O_ 0.227438 0.770402 0.174127 -0.61362
O_ O_ 0.472373 0.519152 0.176622 -0.61362
O_ O_ 0.474424 0.770737 0.178167 -0.61362
O_ O_ 0.188362 0.530045 0.120472 -0.98607
O_ O_ 0.190194 0.780935 0.118301 -0.98607
O_ O_ 0.444834 0.534204 0.116788 -0.98607
O_ O_ 0.442338 0.781289 0.117698 -0.98607
O_ O_ 0.222508 0.571574 0.19195 -0.61362
O_ O_ 0.236653 0.82517 0.18308 -0.61362
O_ O_ 0.473853 0.573785 0.192999 -0.61362
O_ O_ 0.486267 0.826502 0.186701 -0.61362
O_ O_ 0.0795282 0.676449 0.432626 -0.55956
O_ O_ 0.0744476 0.928156 0.437566 -0.55956
O_ O_ 0.321434 0.675359 0.43737 -0.55956
O_ O_ 0.320274 0.921314 0.441176 -0.55956
O_ O_ 0.211228 0.723687 0.0793405 -0.61362
O_ O_ 0.208238 0.973114 0.0753282 -0.61362
O_ O_ 0.45796 0.723144 0.0795777 -0.61362
O_ O_ 0.45817 0.970238 0.0793825 -0.61362
O_ O_ 0.160656 0.714712 0.129104 -0.98607
O_ O_ 0.157097 0.965051 0.136432 -0.98607
O_ O_ 0.40434 0.714189 0.12452 -0.98607
O_ O_ 0.407974 0.962161 0.131041 -0.98607
O_ O_ 0.151773 0.676133 0.0600594 -0.61362
O_ O_ 0.151973 0.924061 0.0613816 -0.61362
O_ O_ 0.405909 0.670875 0.0643507 -0.61362
O_ O_ 0.4053 0.918789 0.0632248 -0.61362
O_ O_ 0.137942 0.616871 0.307045 -0.55956
O_ O_ 0.140733 0.843108 0.305388 -0.55956
O_ O_ 0.394401 0.62298 0.315551 -0.55956
O_ O_ 0.396862 0.869212 0.312584 -0.55956
Zn Zn 0.0248601 0.673286 0.863307 0.91541
Zn Zn 0.0261789 0.924504 0.863108 0.91541
Zn Zn 0.272916 0.672964 0.862756 0.91541
Zn Zn 0.269627 0.918875 0.86012 0.91541
Zn Zn 0.102673 0.579349 0.884575 0.91541
Zn Zn 0.0999341 0.830175 0.884683 0.91541
Zn Zn 0.351109 0.5795 0.884613 0.91541
Zn Zn 0.351712 0.828561 0.886177 0.91541
Zn Zn 0.22895 0.577085 0.635389 0.91541
Zn Zn 0.222552 0.825192 0.633295 0.91541
Zn Zn 0.47741 0.573998 0.636074 0.91541
Zn Zn 0.473619 0.826405 0.633013 0.91541
Zn Zn 0.148204 0.666799 0.608925 0.91541
Zn Zn 0.142243 0.918534 0.612191 0.91541
Zn Zn 0.396808 0.667896 0.613356 0.91541
Zn Zn 0.394231 0.918989 0.614461 0.91541
Zn Zn 0.0513873 0.499366 0.872458 1.11764
Zn Zn 0.0544947 0.753455 0.873505 1.11764
Zn Zn 0.301102 0.502114 0.877674 1.11764
Zn Zn 0.3037 0.750768 0.873287 1.11764
Zn Zn 0.191759 0.996208 0.625556 1.11764
Zn Zn 0.194333 0.747093 0.619286 1.11764
Zn Zn 0.445414 0.999836 0.626298 1.11764
Zn Zn 0.446631 0.748069 0.625959 1.11764
H_ H_ 0.249423 0.636423 0.731289 0.1146
H_ H_ 0.250228 0.888127 0.723682 0.1146
H_ H_ 0.496251 0.633912 0.72792 0.1146
H_ H_ 0.509247 0.895126 0.728672 0.1146
H_ H_ 0.190817 0.706825 0.687094 0.1146
H_ H_ 0.199822 0.962952 0.683627 0.1146
H_ H_ 0.445091 0.706294 0.688148 0.1146
H_ H_ 0.444704 0.964979 0.697676 0.1146
H_ H_ 0.223121 0.724667 0.763167 0.1146
H_ H_ 0.230838 0.979704 0.75843 0.1146
H_ H_ 0.487153 0.728887 0.760849 0.1146
H_ H_ 0.473267 0.97894 0.769684 0.1146
H_ H_ 0.195801 0.576274 0.526066 0.42917
H_ H_ 0.173169 0.807663 0.538405 0.42917
H_ H_ 0.434009 0.562757 0.535662 0.42917
H_ H_ 0.43739 0.822754 0.536373 0.42917
H_ H_ 0.157789 0.606682 0.552006 0.1146
H_ H_ 0.137478 0.847076 0.562132 0.1146
H_ H_ 0.402509 0.601635 0.556777 0.1146
H_ H_ 0.399488 0.85562 0.560582 0.1146
H_ H_ 0.135816 0.546518 0.592581 0.1146
H_ H_ 0.129005 0.806546 0.62468 0.1146
H_ H_ 0.346042 0.549415 0.562314 0.1146
H_ H_ 0.373312 0.796315 0.599822 0.1146
H_ H_ 0.108063 0.570034 0.589264 0.1146
H_ H_ 0.0907019 0.812651 0.600983 0.1146
H_ H_ 0.372962 0.54993 0.608425 0.1146
H_ H_ 0.350086 0.825702 0.608965 0.1146
H_ H_ 0.113844 0.539367 0.544205 0.1146
H_ H_ 0.108202 0.779722 0.575317 0.1146
H_ H_ 0.351792 0.580683 0.610172 0.1146
H_ H_ 0.350141 0.798416 0.556751 0.1146
H_ H_ 0.0820153 0.723913 0.889278 0.42917
H_ H_ 0.0833609 0.974101 0.890859 0.42917
H_ H_ 0.328378 0.720358 0.899969 0.42917
H_ H_ 0.320609 0.965434 0.896389 0.42917
H_ H_ 0.10734 0.607561 0.514651 0.1146
H_ H_ 0.106615 0.862296 0.522352 0.1146
H_ H_ 0.35798 0.608054 0.518101 0.1146
H_ H_ 0.357437 0.864873 0.520823 0.1146
H_ H_ 0.228438 0.538292 0.552124 0.1146
H_ H_ 0.22503 0.790837 0.550629 0.1146
H_ H_ 0.481684 0.535766 0.556611 0.1146
H_ H_ 0.480226 0.788765 0.552542 0.1146
H_ H_ 0.24898 0.519301 0.981085 0.1146
H_ H_ 0.241069 0.774863 0.976602 0.1146
H_ H_ 0.501661 0.516084 0.987533 0.1146
H_ H_ 0.503651 0.773062 0.978203 0.1146
H_ H_ 0.126826 0.650613 0.70294 0.42917
H_ H_ 0.130923 0.88781 0.695201 0.42917
H_ H_ 0.382811 0.644782 0.704856 0.42917
H_ H_ 0.373471 0.879766 0.682067 0.42917
H_ H_ 0.0550666 0.630388 0.694103 0.1146
H_ H_ 0.0506219 0.869391 0.69184 0.1146
H_ H_ 0.310715 0.629621 0.695661 0.1146
H_ H_ 0.29676 0.87475 0.691151 0.1146
H_ H_ 0.0457418 0.681314 0.680671 0.1146
H_ H_ 0.0899704 0.931936 0.72591 0.1146
H_ H_ 0.326103 0.686481 0.724484 0.1146
H_ H_ 0.335988 0.938182 0.730961 0.1146
H_ H_ 0.0729674 0.690631 0.728842 0.1146
H_ H_ 0.119652 0.933276 0.686014 0.1146
H_ H_ 0.359199 0.700765 0.690477 0.1146
H_ H_ 0.367131 0.939314 0.689794 0.1146
H_ H_ 0.100356 0.703565 0.689528 0.1146
H_ H_ 0.0725336 0.931538 0.676076 0.1146
H_ H_ 0.304777 0.678171 0.671437 0.1146
H_ H_ 0.315725 0.928752 0.677685 0.1146
H_ H_ 0.107315 0.527385 0.854321 0.42917
H_ H_ 0.11783 0.789294 0.861221 0.42917
H_ H_ 0.362692 0.533012 0.866597 0.42917
H_ H_ 0.355645 0.778804 0.851511 0.42917
H_ H_ 0.998178 0.611069 0.772687 0.1146
H_ H_ -0.003010999999999986 0.858531 0.76485 0.1146
H_ H_ 0.247863 0.610445 0.772747 0.1146
H_ H_ 0.253841 0.86124 0.767214 0.1146
H_ H_ 0.0451043 0.532844 0.809026 0.1146
H_ H_ 0.0509451 0.787572 0.811738 0.1146
H_ H_ 0.300685 0.534864 0.810306 0.1146
H_ H_ 0.296783 0.783042 0.806582 0.1146
H_ H_ 0.0229661 0.519917 0.736017 0.1146
H_ H_ 0.0210773 0.769772 0.73353 0.1146
H_ H_ 0.276781 0.522561 0.736686 0.1146
H_ H_ 0.268969 0.768491 0.730847 0.1146
H_ H_ 0.0883482 0.695447 0.956867 0.42917
H_ H_ 0.0575243 0.933982 0.957784 0.42917
H_ H_ 0.306255 0.678596 0.962879 0.42917
H_ H_ 0.307826 0.929621 0.9548 0.42917
H_ H_ 0.103804 0.646192 0.933064 0.1146
H_ H_ 0.0917872 0.89748 0.941516 0.1146
H_ H_ 0.342809 0.645459 0.948277 0.1146
H_ H_ 0.344982 0.895395 0.937319 0.1146
H_ H_ 0.140751 0.657247 0.866913 0.1146
H_ H_ 0.151635 0.924448 0.900858 0.1146
H_ H_ 0.40372 0.69944 0.951845 0.1146
H_ H_ 0.370971 0.951721 0.895895 0.1146
H_ H_ 0.161922 0.691843 0.914836 0.1146
H_ H_ 0.142478 0.951482 0.947412 0.1146
H_ H_ 0.378093 0.708371 0.913954 0.1146
H_ H_ 0.395047 0.92555 0.896259 0.1146
H_ H_ 0.130152 0.693673 0.872391 0.1146
H_ H_ 0.12654 0.951604 0.89274 0.1146
H_ H_ 0.394006 0.67623 0.896503 0.1146
H_ H_ 0.393603 0.955103 0.94526 0.1146
H_ H_ 0.173852 0.528086 0.61429 0.42917
H_ H_ 0.166143 0.772756 0.596345 0.42917
H_ H_ 0.42012 0.525992 0.60426 0.42917
H_ H_ 0.423046 0.77265 0.594986 0.42917
H_ H_ 0.144001 0.634455 0.98282 0.1146
H_ H_ 0.138632 0.885291 0.976787 0.1146
H_ H_ 0.40018 0.628794 0.984714 0.1146
H_ H_ 0.389678 0.885964 0.979567 0.1146
H_ H_ 0.0190541 0.715398 0.941914 0.1146
H_ H_ 0.0184965 0.965613 0.941286 0.1146
H_ H_ 0.264401 0.712804 0.941814 0.1146
H_ H_ 0.265382 0.958171 0.941163 0.1146
H_ H_ 1.00963527 0.718859 0.52529 0.1146
H_ H_ 1.00127061 0.98172 0.517082 0.1146
H_ H_ 0.255915 0.726734 0.511898 0.1146
H_ H_ 0.251247 0.973428 0.524694 0.1146
H_ H_ 0.125457 0.603611 0.80254 0.42917
H_ H_ 0.124666 0.86954 0.795204 0.42917
H_ H_ 0.373077 0.623196 0.813461 0.42917
H_ H_ 0.387876 0.869096 0.785335 0.42917
H_ H_ 0.197191 0.619041 0.804036 0.1146
H_ H_ 0.193016 0.870216 0.800121 0.1146
H_ H_ 0.442139 0.622536 0.807376 0.1146
H_ H_ 0.449691 0.870702 0.805773 0.1146
H_ H_ 0.183518 0.555982 0.781102 0.1146
H_ H_ 0.156471 0.810327 0.760221 0.1146
H_ H_ 0.423172 0.563853 0.827194 0.1146
H_ H_ 0.434555 0.814122 0.817867 0.1146
H_ H_ 0.163414 0.551873 0.829109 0.1146
H_ H_ 0.125234 0.805161 0.804495 0.1146
H_ H_ 0.41248 0.561335 0.772902 0.1146
H_ H_ 0.409168 0.811118 0.767257 0.1146
H_ H_ 0.211295 0.578149 0.831631 0.1146
H_ H_ 0.177317 0.81109 0.810392 0.1146
H_ H_ 0.374612 0.54843 0.806655 0.1146
H_ H_ 0.383793 0.80701 0.807292 0.1146
H_ H_ 0.138856 0.714943 0.636725 0.42917
H_ H_ 0.13141 0.966251 0.637685 0.42917
H_ H_ 0.383818 0.711644 0.626259 0.42917
H_ H_ 0.386649 0.970867 0.638487 0.42917
C_ C_ 0.237065 0.652091 0.721732 -0.12085
C_ C_ 0.238374 0.903033 0.717711 -0.12085
C_ C_ 0.48825 0.651261 0.719494 -0.12085
C_ C_ 0.493124 0.908997 0.7218 -0.12085
C_ C_ 0.0133728 0.694106 0.798839 0.6956
C_ C_ 0.012501 0.944261 0.796794 0.6956
C_ C_ 0.258728 0.69263 0.799407 0.6956
C_ C_ 0.260968 0.945637 0.793266 0.6956
C_ C_ 0.239865 0.682971 0.753791 -0.16651
C_ C_ 0.245836 0.935629 0.747241 -0.16651
C_ C_ 0.491763 0.682072 0.751706 -0.16651
C_ C_ 0.494607 0.93954 0.753868 -0.16651
C_ C_ 0.206973 0.692636 0.696894 -0.12085
C_ C_ 0.213417 0.948323 0.693078 -0.12085
C_ C_ 0.461484 0.694041 0.697168 -0.12085
C_ C_ 0.457755 0.948996 0.702789 -0.12085
C_ C_ 0.222856 0.645199 0.677181 0.16698
C_ C_ 0.219951 0.8948 0.676065 0.16698
C_ C_ 0.477848 0.645434 0.675521 0.16698
C_ C_ 0.471653 0.898758 0.68004 0.16698
C_ C_ 0.184956 0.618434 0.616841 0.36401
C_ C_ 0.179896 0.866679 0.618796 0.36401
C_ C_ 0.433668 0.616648 0.619162 0.36401
C_ C_ 0.431881 0.870709 0.620846 0.36401
C_ C_ 0.210097 0.666765 0.666199 0.16698
C_ C_ 0.208073 0.91664 0.66466 0.16698
C_ C_ 0.462487 0.666135 0.665226 0.16698
C_ C_ 0.454513 0.918429 0.671749 0.16698
C_ C_ 0.225171 0.703052 0.7401 -0.12085
C_ C_ 0.231738 0.95767 0.735742 -0.12085
C_ C_ 0.480847 0.704442 0.739185 -0.12085
C_ C_ 0.474735 0.957902 0.744877 -0.12085
C_ C_ 0.165879 0.591904 0.571731 0.15351
C_ C_ 0.151393 0.835556 0.582194 0.15351
C_ C_ 0.40789 0.588585 0.578283 0.15351
C_ C_ 0.407369 0.842184 0.579253 0.15351
C_ C_ 0.129618 0.560062 0.57403 -0.35079
C_ C_ 0.116988 0.807657 0.596215 -0.35079
C_ C_ 0.368348 0.566567 0.59187 -0.35079
C_ C_ 0.368094 0.814281 0.586933 -0.35079
C_ C_ 0.0792817 0.593088 0.523565 -0.12085
C_ C_ 0.075166 0.848062 0.52336 -0.12085
C_ C_ 0.328313 0.59553 0.523748 -0.12085
C_ C_ 0.324972 0.850006 0.524428 -0.12085
C_ C_ 0.0664268 0.553081 0.949542 0.6956
C_ C_ 0.0627548 0.80705 0.947685 0.6956
C_ C_ 0.313334 0.552913 0.949563 0.6956
C_ C_ 0.310744 0.803626 0.946907 0.6956
C_ C_ 0.0545623 0.564722 0.993952 -0.16651
C_ C_ 0.0510741 0.816389 0.992373 -0.16651
C_ C_ 0.304416 0.565084 0.994378 -0.16651
C_ C_ 0.297651 0.816421 0.991164 -0.16651
C_ C_ 0.254933 0.556091 0.542398 -0.12085
C_ C_ 0.250076 0.807483 0.54038 -0.12085
C_ C_ 0.50735 0.554676 0.5476 -0.12085
C_ C_ 0.503074 0.806449 0.54296 -0.12085
C_ C_ 0.0673859 0.603613 0.563772 0.16698
C_ C_ 0.0614016 0.857868 0.562438 0.16698
C_ C_ 0.314918 0.608042 0.563868 0.16698
C_ C_ 0.311949 0.858465 0.562766 0.16698
C_ C_ 0.0642599 0.62565 0.629358 0.36401
C_ C_ 0.0611555 0.869028 0.629137 0.36401
C_ C_ 0.31516 0.624698 0.631293 0.36401
C_ C_ 0.311483 0.86894 0.629498 0.36401
C_ C_ 0.0331294 0.582104 0.57375 0.16698
C_ C_ 0.0247621 0.837977 0.569427 0.16698
C_ C_ 0.280216 0.586436 0.573253 0.16698
C_ C_ 0.274937 0.838276 0.570839 0.16698
C_ C_ 0.0170507 0.545651 1.00343625 -0.12085
C_ C_ 0.0129785 0.796222 -0.000601891 -0.12085
C_ C_ 0.269357 0.542786 0.00592105 -0.12085
C_ C_ 0.260585 0.795598 0.00174426 -0.12085
C_ C_ 0.0747843 0.648103 0.677152 0.15351
C_ C_ 0.0766146 0.884698 0.67793 0.15351
C_ C_ 0.331093 0.644361 0.67754 0.15351
C_ C_ 0.323924 0.886984 0.677473 0.15351
C_ C_ 0.0719046 0.681563 0.693558 -0.35079
C_ C_ 0.0910199 0.922832 0.692241 -0.35079
C_ C_ 0.330964 0.680048 0.691286 -0.35079
C_ C_ 0.337202 0.925561 0.694679 -0.35079
C_ C_ 0.0102193 0.594073 0.779527 -0.12085
C_ C_ 0.00721465 0.842521 0.775756 -0.12085
C_ C_ 0.265231 0.597741 0.777259 -0.12085
C_ C_ 0.260018 0.842243 0.775805 -0.12085
C_ C_ 0.241818 0.552957 0.702088 0.6956
C_ C_ 0.231001 0.798039 0.698029 0.6956
C_ C_ 0.4864 0.550146 0.703986 0.6956
C_ C_ 0.484728 0.801408 0.699831 0.6956
C_ C_ 0.00659958 0.563018 0.746672 -0.16651
C_ C_ 0.00777266 0.812735 0.745583 -0.16651
C_ C_ 0.26094 0.56549 0.748063 -0.16651
C_ C_ 0.254261 0.811255 0.74311 -0.16651
C_ C_ 0.0376632 0.550339 0.800918 -0.12085
C_ C_ 0.0394025 0.802146 0.799158 -0.12085
C_ C_ 0.295789 0.555043 0.801609 -0.12085
C_ C_ 0.288609 0.800401 0.797235 -0.12085
C_ C_ 0.0224436 0.600615 0.823101 0.16698
C_ C_ 0.0280344 0.853493 0.817143 0.16698
C_ C_ 0.284985 0.60745 0.820328 0.16698
C_ C_ 0.274572 0.850566 0.817506 0.16698
C_ C_ 0.0668689 0.62971 0.877521 0.36401
C_ C_ 0.0668945 0.882124 0.876989 0.36401
C_ C_ 0.320001 0.632988 0.881922 0.36401
C_ C_ 0.317002 0.879945 0.874954 0.36401
C_ C_ 0.0398564 0.580787 0.830304 0.16698
C_ C_ 0.0437609 0.83253 0.82677 0.16698
C_ C_ 0.298782 0.585908 0.829737 0.16698
C_ C_ 0.292328 0.831062 0.827276 0.16698
C_ C_ 0.0227076 0.542028 0.758173 -0.12085
C_ C_ 0.022695 0.792197 0.757232 -0.12085
C_ C_ 0.277364 0.545822 0.759287 -0.12085
C_ C_ 0.269265 0.790623 0.755025 -0.12085
C_ C_ 0.0993964 0.659742 0.910262 0.15351
C_ C_ 0.0886326 0.910297 0.919729 0.15351
C_ C_ 0.340795 0.658988 0.926294 0.15351
C_ C_ 0.339618 0.909811 0.917108 0.15351
C_ C_ 0.1347 0.677273 0.889023 -0.35079
C_ C_ 0.129587 0.935905 0.914531 -0.35079
C_ C_ 0.381306 0.688009 0.922352 -0.35079
C_ C_ 0.377361 0.937031 0.913707 -0.35079
C_ C_ 0.173897 0.649734 0.97518 -0.12085
C_ C_ 0.168438 0.898012 0.970589 -0.12085
C_ C_ 0.421734 0.64908 0.977587 -0.12085
C_ C_ 0.417661 0.899877 0.973093 -0.12085
C_ C_ 0.187681 0.692083 0.547663 0.6956
C_ C_ 0.182054 0.942566 0.5527 0.6956
C_ C_ 0.43485 0.690187 0.551434 0.6956
C_ C_ 0.438966 0.944368 0.554168 0.6956
C_ C_ 0.19861 0.682681 0.503452 -0.16651
C_ C_ 0.191405 0.932059 0.506298 -0.16651
C_ C_ 0.449488 0.67728 0.509325 -0.16651
C_ C_ 0.450622 0.933194 0.50957 -0.16651
C_ C_ 0.994047 0.698201 0.954654 -0.12085
C_ C_ 0.992286 0.949301 0.953683 -0.12085
C_ C_ 0.244845 0.692049 0.953715 -0.12085
C_ C_ 0.239512 0.940508 0.950602 -0.12085
C_ C_ 0.187027 0.638001 0.935281 0.16698
C_ C_ 0.181191 0.885544 0.930798 0.16698
C_ C_ 0.432164 0.640303 0.936546 0.16698
C_ C_ 0.4308 0.891078 0.934026 0.16698
C_ C_ 0.187318 0.623692 0.867408 0.36401
C_ C_ 0.184292 0.872143 0.864582 0.36401
C_ C_ 0.432367 0.62434 0.870667 0.36401
C_ C_ 0.433835 0.875412 0.867089 0.36401
C_ C_ 0.221578 0.660114 0.925999 0.16698
C_ C_ 0.219449 0.907053 0.922699 0.16698
C_ C_ 0.467787 0.661003 0.927872 0.16698
C_ C_ 0.466998 0.912054 0.925664 0.16698
C_ C_ 0.234948 0.702885 0.491888 -0.12085
C_ C_ 0.230213 0.949869 0.498731 -0.12085
C_ C_ 0.484646 0.701263 0.497988 -0.12085
C_ C_ 0.487116 0.956114 0.500507 -0.12085
C_ C_ 0.177169 0.602765 0.821741 0.15351
C_ C_ 0.167644 0.856523 0.815697 0.15351
C_ C_ 0.417037 0.607666 0.822659 0.15351
C_ C_ 0.423595 0.858029 0.818957 0.15351
C_ C_ 0.184521 0.570059 0.815733 -0.35079
C_ C_ 0.156115 0.81924 0.796402 -0.35079
C_ C_ 0.405475 0.569381 0.805481 -0.35079
C_ C_ 0.414851 0.82129 0.803361 -0.35079
N_ N_ 0.208015 0.613974 0.645397 -0.51457
N_ N_ 0.205135 0.862359 0.644199 -0.51457
N_ N_ 0.459705 0.612562 0.646072 -0.51457
N_ N_ 0.4577 0.868308 0.648195 -0.51457
N_ N_ 0.183546 0.649327 0.629969 -0.51457
N_ N_ 0.178096 0.898174 0.631272 -0.51457
N_ N_ 0.434698 0.649043 0.629657 -0.51457
N_ N_ 0.429835 0.901992 0.63426 -0.51457
N_ N_ 0.0891442 0.634287 0.599083 -0.51457
N_ N_ 0.0851738 0.877961 0.600024 -0.51457
N_ N_ 0.337669 0.63318 0.599562 -0.51457
N_ N_ 0.335345 0.877944 0.600038 -0.51457
N_ N_ 0.0306681 0.593028 0.614625 -0.51457
N_ N_ 0.0245624 0.843709 0.610676 -0.51457
N_ N_ 0.280026 0.595954 0.616107 -0.51457
N_ N_ 0.27492 0.843273 0.613059 -0.51457
N_ N_ 0.0414312 0.633464 0.851838 -0.51457
N_ N_ 0.0422787 0.884639 0.848328 -0.51457
N_ N_ 0.295916 0.637034 0.853459 -0.51457
N_ N_ 0.290958 0.882919 0.847217 -0.51457
N_ N_ 0.0675743 0.597632 0.865919 -0.51457
N_ N_ 0.0672221 0.849936 0.865067 -0.51457
N_ N_ 0.319708 0.601368 0.868913 -0.51457
N_ N_ 0.320009 0.848829 0.862973 -0.51457
N_ N_ 0.162953 0.614366 0.898116 -0.51457
N_ N_ 0.158572 0.865039 0.893471 -0.51457
N_ N_ 0.40811 0.616025 0.900841 -0.51457
N_ N_ 0.408134 0.866853 0.896823 -0.51457
N_ N_ 0.224255 0.650761 0.884058 -0.51457
N_ N_ 0.220358 0.896994 0.881341 -0.51457
N_ N_ 0.469321 0.650829 0.885213 -0.51457
N_ N_ 0.467793 0.904223 0.883015 -0.51457
O_ O_ 0.0185142 0.724997 0.82654 -0.61362
O_ O_ 0.0212187 0.976368 0.823694 -0.61362
O_ O_ 0.265686 0.72196 0.824839 -0.61362
O_ O_ 0.275651 0.977586 0.817879 -0.61362
O_ O_ 0.0594724 0.718862 0.877644 -0.98607
O_ O_ 0.060389 0.968133 0.878319 -0.98607
O_ O_ 0.307863 0.71574 0.883657 -0.98607
O_ O_ 0.301486 0.962702 0.880768 -0.98607
O_ O_ 0.0207736 0.67251 0.812497 -0.61362
O_ O_ 0.0233353 0.922993 0.809305 -0.61362
O_ O_ 0.273179 0.673737 0.809578 -0.61362
O_ O_ 0.257264 0.921347 0.80943 -0.61362
O_ O_ 0.188316 0.579926 0.550469 -0.55956
O_ O_ 0.171888 0.821134 0.562491 -0.55956
O_ O_ 0.424446 0.569514 0.558203 -0.55956
O_ O_ 0.427573 0.827131 0.558189 -0.55956
O_ O_ 0.0453594 0.520841 0.923638 -0.61362
O_ O_ 0.044249 0.776198 0.922412 -0.61362
O_ O_ 0.28889 0.52448 0.923468 -0.61362
O_ O_ 0.290718 0.771454 0.924118 -0.61362
O_ O_ 0.0907701 0.534631 0.867438 -0.98607
O_ O_ 0.0963718 0.789299 0.869106 -0.98607
O_ O_ 0.342198 0.53607 0.873485 -0.98607
O_ O_ 0.340298 0.784999 0.86694 -0.98607
O_ O_ 0.094714 0.575637 0.937413 -0.61362
O_ O_ 0.0937868 0.828848 0.936991 -0.61362
O_ O_ 0.342968 0.575357 0.937144 -0.61362
O_ O_ 0.345678 0.823393 0.938503 -0.61362
O_ O_ 0.110534 0.656457 0.69111 -0.55956
O_ O_ 0.106183 0.878869 0.688276 -0.55956
O_ O_ 0.367074 0.648249 0.689265 -0.55956
O_ O_ 0.351699 0.880581 0.688589 -0.55956
O_ O_ 0.224317 0.519948 0.679175 -0.61362
O_ O_ 0.219335 0.765773 0.674456 -0.61362
O_ O_ 0.468531 0.516878 0.681855 -0.61362
O_ O_ 0.474535 0.769821 0.677276 -0.61362
O_ O_ 0.198943 0.533694 0.621774 -0.98607
O_ O_ 0.188065 0.779906 0.611672 -0.98607
O_ O_ 0.442449 0.529828 0.617833 -0.98607
O_ O_ 0.442444 0.780963 0.614116 -0.98607
O_ O_ 0.247735 0.576938 0.684063 -0.61362
O_ O_ 0.231038 0.822386 0.682345 -0.61362
O_ O_ 0.487415 0.573876 0.686795 -0.61362
O_ O_ 0.487921 0.824487 0.682704 -0.61362
O_ O_ 0.0866405 0.680472 0.93324 -0.55956
O_ O_ 0.0687335 0.927339 0.935742 -0.55956
O_ O_ 0.32182 0.676471 0.944827 -0.55956
O_ O_ 0.319649 0.926296 0.934326 -0.55956
O_ O_ 0.208812 0.723124 0.575524 -0.61362
O_ O_ 0.197001 0.976275 0.573063 -0.61362
O_ O_ 0.451262 0.723172 0.574321 -0.61362
O_ O_ 0.459995 0.975865 0.57931 -0.61362
O_ O_ 0.157402 0.711654 0.624178 -0.98607
O_ O_ 0.150677 0.960759 0.62701 -0.98607
O_ O_ 0.40558 0.710142 0.624059 -0.98607
O_ O_ 0.404056 0.962833 0.628136 -0.98607
O_ O_ 0.15421 0.671064 0.557412 -0.61362
O_ O_ 0.149734 0.922442 0.564675 -0.61362
O_ O_ 0.407137 0.668481 0.564042 -0.61362
O_ O_ 0.405555 0.924823 0.56396 -0.61362
O_ O_ 0.141751 0.594975 0.808845 -0.55956
O_ O_ 0.137975 0.862376 0.809632 -0.55956
O_ O_ 0.385704 0.61125 0.815379 -0.55956
O_ O_ 0.39543 0.861107 0.803597 -0.55956
Zn Zn 0.526287 0.173149 0.367904 0.91541
Zn Zn 0.522743 0.421835 0.365684 0.91541
Zn Zn 0.77753 0.174022 0.364639 0.91541
Zn Zn 0.774583 0.42186 0.360063 0.91541
Zn Zn 0.602819 0.0789601 0.387721 0.91541
Zn Zn 0.605374 0.330454 0.389444 0.91541
Zn Zn 0.857467 0.0823085 0.384439 0.91541
Zn Zn 0.85207 0.328891 0.382636 0.91541
Zn Zn 0.724757 0.0793381 0.138808 0.91541
Zn Zn 0.72313 0.326644 0.136513 0.91541
Zn Zn 0.976447 0.0784836 0.137753 0.91541
Zn Zn 0.97397 0.324766 0.134066 0.91541
Zn Zn 0.644667 0.170528 0.117316 0.91541
Zn Zn 0.64804 0.422794 0.111423 0.91541
Zn Zn 0.896287 0.168443 0.11348 0.91541
Zn Zn 0.895778 0.417647 0.113672 0.91541
Zn Zn 0.549649 1.00323857 0.374961 1.11764
Zn Zn 0.559052 0.251806 0.378198 1.11764
Zn Zn 0.803523 0.00192939 0.37187 1.11764
Zn Zn 0.808756 0.252783 0.378651 1.11764
Zn Zn 0.698307 0.501127 0.1243 1.11764
Zn Zn 0.68844 0.246918 0.122618 1.11764
Zn Zn 0.943078 0.495644 0.124483 1.11764
Zn Zn 0.947482 0.246029 0.124454 1.11764
H_ H_ 0.754397 0.144358 0.228473 0.1146
H_ H_ 0.747396 0.38782 0.226596 0.1146
H_ H_ 0.00499061 0.142141 0.225905 0.1146
H_ H_ 1.0072495 0.391086 0.229223 0.1146
H_ H_ 0.686493 0.208581 0.202082 0.1146
H_ H_ 0.691264 0.460224 0.193272 0.1146
H_ H_ 0.938974 0.210135 0.193631 0.1146
H_ H_ 0.936126 0.457632 0.198357 0.1146
H_ H_ 0.717982 0.224291 0.273081 0.1146
H_ H_ 0.726267 0.47619 0.265196 0.1146
H_ H_ 0.976751 0.22987 0.266156 0.1146
H_ H_ 0.966723 0.471019 0.272362 0.1146
H_ H_ 0.675858 0.0659422 0.0403646 0.42917
H_ H_ 0.690312 0.316839 0.0369512 0.42917
H_ H_ 0.948164 0.0738263 0.0396278 0.42917
H_ H_ 0.934678 0.319809 0.0350699 0.42917
H_ H_ 0.641033 0.103578 0.0687098 0.1146
H_ H_ 0.665909 0.363655 0.054903 0.1146
H_ H_ 0.908023 0.104688 0.0552062 0.1146
H_ H_ 0.894701 0.349268 0.0624532 0.1146
H_ H_ 0.601848 0.0405404 0.0772437 0.1146
H_ H_ 0.605997 0.334471 0.0905558 0.1146
H_ H_ 0.852802 0.048502 0.0533081 0.1146
H_ H_ 0.856483 0.324197 0.117109 0.1146
H_ H_ 0.625853 0.0626484 0.131261 0.1146
H_ H_ 0.607332 0.303378 0.0409897 0.1146
H_ H_ 0.876035 0.0564993 0.10642 0.1146
H_ H_ 0.848659 0.287232 0.0652378 0.1146
H_ H_ 0.593082 0.0734896 0.107084 0.1146
H_ H_ 0.623158 0.304047 0.0903177 0.1146
H_ H_ 0.855652 0.0836219 0.0961376 0.1146
H_ H_ 0.883869 0.30076 0.112873 0.1146
H_ H_ 0.583772 0.223454 0.402009 0.42917
H_ H_ 0.582782 0.468987 0.384131 0.42917
H_ H_ 0.836127 0.221467 0.396908 0.42917
H_ H_ 0.823358 0.472379 0.402143 0.42917
H_ H_ 0.6079 0.112547 0.0209837 0.1146
H_ H_ 0.604936 0.372166 0.016816 0.1146
H_ H_ 0.860927 0.112522 0.0223961 0.1146
H_ H_ 0.850622 0.36589 0.0176848 0.1146
H_ H_ 0.726492 0.0460036 0.0486273 0.1146
H_ H_ 0.727731 0.287281 0.0514177 0.1146
H_ H_ 0.977496 0.0434891 0.0497602 0.1146
H_ H_ 0.981138 0.284652 0.0514119 0.1146
H_ H_ 0.75176 0.0196028 0.483634 0.1146
H_ H_ 0.759076 0.267076 0.488283 0.1146
H_ H_ 0.997451 0.0270107 0.478723 0.1146
H_ H_ 0.0005699999999999594 0.270989 0.478008 0.1146
H_ H_ 0.629536 0.133906 0.191982 0.42917
H_ H_ 0.632908 0.386672 0.195179 0.42917
H_ H_ 0.88175 0.139769 0.197263 0.42917
H_ H_ 0.857445 0.362601 0.194865 0.42917
H_ H_ 0.552134 0.123687 0.194152 0.1146
H_ H_ 0.554266 0.379176 0.197169 0.1146
H_ H_ 0.803509 0.127034 0.202695 0.1146
H_ H_ 0.798374 0.377122 0.194922 0.1146
H_ H_ 0.619039 0.189803 0.194919 0.1146
H_ H_ 0.623736 0.444665 0.197967 0.1146
H_ H_ 0.84702 0.186749 0.236328 0.1146
H_ H_ 0.845655 0.432345 0.230832 0.1146
H_ H_ 0.570754 0.182087 0.185235 0.1146
H_ H_ 0.576846 0.438205 0.18533 0.1146
H_ H_ 0.865634 0.188435 0.186532 0.1146
H_ H_ 0.866873 0.441291 0.187006 0.1146
H_ H_ 0.589603 0.182094 0.236436 0.1146
H_ H_ 0.593858 0.435495 0.23631 0.1146
H_ H_ 0.814411 0.18499 0.192148 0.1146
H_ H_ 0.815173 0.428706 0.186716 0.1146
H_ H_ 0.612775 0.0312251 0.374402 0.42917
H_ H_ 0.620351 0.284017 0.377132 0.42917
H_ H_ 0.866285 0.0319235 0.368396 0.42917
H_ H_ 0.87023 0.284581 0.373056 0.42917
H_ H_ 0.494321 0.108094 0.272499 0.1146
H_ H_ 0.497668 0.358765 0.275275 0.1146
H_ H_ 0.758123 0.116353 0.268668 0.1146
H_ H_ 0.750244 0.358898 0.267165 0.1146
H_ H_ 0.5519 0.0351607 0.308378 0.1146
H_ H_ 0.562265 0.292341 0.308998 0.1146
H_ H_ 0.822884 0.0469475 0.301663 0.1146
H_ H_ 0.805059 0.286222 0.298157 0.1146
H_ H_ 0.526632 0.0220892 0.233209 0.1146
H_ H_ 0.526138 0.272969 0.236357 0.1146
H_ H_ 0.783419 0.0255323 0.231661 0.1146
H_ H_ 0.767574 0.26834 0.226729 0.1146
H_ H_ 0.570449 0.180458 0.461882 0.42917
H_ H_ 0.572878 0.446752 0.448102 0.42917
H_ H_ 0.812932 0.176398 0.456038 0.42917
H_ H_ 0.795242 0.41812 0.459915 0.42917
H_ H_ 0.606269 0.145739 0.432904 0.1146
H_ H_ 0.596669 0.398223 0.443911 0.1146
H_ H_ 0.85825 0.147616 0.437473 0.1146
H_ H_ 0.835235 0.383737 0.440112 0.1146
H_ H_ 0.652202 0.207743 0.433983 0.1146
H_ H_ 0.653738 0.456073 0.439343 0.1146
H_ H_ 0.904524 0.212035 0.42931 0.1146
H_ H_ 0.891648 0.421027 0.406678 0.1146
H_ H_ 0.627247 0.18963 0.378729 0.1146
H_ H_ 0.620808 0.444706 0.391892 0.1146
H_ H_ 0.874802 0.190394 0.375381 0.1146
H_ H_ 0.886182 0.445848 0.454772 0.1146
H_ H_ 0.656305 0.173437 0.399527 0.1146
H_ H_ 0.647275 0.419826 0.394257 0.1146
H_ H_ 0.904296 0.174234 0.393726 0.1146
H_ H_ 0.866634 0.444978 0.405904 0.1146
H_ H_ 0.671319 0.0322484 0.110255 0.42917
H_ H_ 0.665769 0.280329 0.103481 0.42917
H_ H_ 0.921423 0.0282406 0.102248 0.42917
H_ H_ 0.924812 0.275022 0.0934572 0.42917
H_ H_ 0.643423 0.141354 0.483133 0.1146
H_ H_ 0.64422 0.388629 0.479147 0.1146
H_ H_ 0.899708 0.138447 0.48402 0.1146
H_ H_ 0.889886 0.38819 0.479605 0.1146
H_ H_ 0.517344 0.216696 0.445767 0.1146
H_ H_ 0.517548 0.457713 0.448747 0.1146
H_ H_ 0.771535 0.209818 0.442824 0.1146
H_ H_ 0.772153 0.465733 0.449867 0.1146
H_ H_ 0.500907 0.226004 0.0199947 0.1146
H_ H_ 0.502987 0.473157 0.0236473 0.1146
H_ H_ 0.745733 0.232401 0.0171482 0.1146
H_ H_ 0.760773 0.473521 0.0262474 0.1146
H_ H_ 0.614415 0.0949254 0.293845 0.42917
H_ H_ 0.634085 0.359702 0.29009 0.42917
H_ H_ 0.882706 0.112748 0.28663 0.42917
H_ H_ 0.890201 0.383106 0.30493 0.42917
H_ H_ 0.693787 0.125372 0.30652 0.1146
H_ H_ 0.700731 0.368878 0.30268 0.1146
H_ H_ 0.951908 0.121973 0.302742 0.1146
H_ H_ 0.94906 0.371477 0.302 0.1146
H_ H_ 0.703347 0.075838 0.313864 0.1146
H_ H_ 0.639414 0.297492 0.302655 0.1146
H_ H_ 0.941254 0.0695169 0.312237 0.1146
H_ H_ 0.883863 0.308017 0.319248 0.1146
H_ H_ 0.663045 0.0629877 0.269488 0.1146
H_ H_ 0.690501 0.313151 0.330222 0.1146
H_ H_ 0.910436 0.0645639 0.267355 0.1146
H_ H_ 0.932487 0.313745 0.310251 0.1146
H_ H_ 0.648694 0.0513044 0.315151 0.1146
H_ H_ 0.679955 0.306607 0.27607 0.1146
H_ H_ 0.888997 0.0557708 0.31615 0.1146
H_ H_ 0.898526 0.311489 0.271495 0.1146
H_ H_ 0.628505 0.213443 0.128001 0.42917
H_ H_ 0.639159 0.467936 0.134844 0.42917
H_ H_ 0.883639 0.211897 0.118213 0.42917
H_ H_ 0.88328 0.464219 0.131286 0.42917
C_ C_ 0.740994 0.158803 0.222811 -0.12085
C_ C_ 0.741048 0.406759 0.219245 -0.12085
C_ C_ 0.989287 0.156438 0.220758 -0.12085
C_ C_ 0.988229 0.402962 0.223867 -0.12085
C_ C_ 0.512957 0.195416 0.302388 0.6956
C_ C_ 0.50849 0.44551 0.302585 0.6956
C_ C_ 0.765913 0.198777 0.302119 0.6956
C_ C_ 0.767949 0.449231 0.295561 0.6956
C_ C_ 0.744401 0.188394 0.257036 -0.16651
C_ C_ 0.745628 0.437504 0.251701 -0.16651
C_ C_ 0.991352 0.18601 0.25291 -0.16651
C_ C_ 0.989717 0.432746 0.256706 -0.16651
C_ C_ 0.702129 0.194653 0.206593 -0.12085
C_ C_ 0.705448 0.445655 0.200237 -0.12085
C_ C_ 0.950043 0.193136 0.2023 -0.12085
C_ C_ 0.949729 0.441277 0.205148 -0.12085
C_ C_ 0.725281 0.152152 0.181099 0.16698
C_ C_ 0.720745 0.398021 0.177577 0.16698
C_ C_ 0.972148 0.14729 0.177953 0.16698
C_ C_ 0.967238 0.392444 0.181569 0.16698
C_ C_ 0.680691 0.121824 0.125909 0.36401
C_ C_ 0.683086 0.372456 0.118692 0.36401
C_ C_ 0.937496 0.120353 0.116602 0.36401
C_ C_ 0.931757 0.36657 0.121726 0.36401
C_ C_ 0.705973 0.171363 0.172836 0.16698
C_ C_ 0.706345 0.418841 0.167964 0.16698
C_ C_ 0.954354 0.16747 0.168346 0.16698
C_ C_ 0.94728 0.411956 0.174582 0.16698
C_ C_ 0.723725 0.205189 0.248734 -0.12085
C_ C_ 0.725212 0.454686 0.240931 -0.12085
C_ C_ 0.974178 0.205035 0.240971 -0.12085
C_ C_ 0.967794 0.449108 0.247242 -0.12085
C_ C_ 0.652858 0.0916874 0.0886251 0.15351
C_ C_ 0.666432 0.347997 0.07386 0.15351
C_ C_ 0.911677 0.091659 0.0768659 0.15351
C_ C_ 0.904585 0.337092 0.0818547 0.15351
C_ C_ 0.617075 0.0657575 0.102379 -0.35079
C_ C_ 0.622041 0.320575 0.0726589 -0.35079
C_ C_ 0.871027 0.0676335 0.0829556 -0.35079
C_ C_ 0.868681 0.3098 0.0932381 -0.35079
C_ C_ 0.577313 0.0996655 0.025914 -0.12085
C_ C_ 0.576991 0.356392 0.0242745 -0.12085
C_ C_ 0.830394 0.0999069 0.0260643 -0.12085
C_ C_ 0.828183 0.347299 0.0261221 -0.12085
C_ C_ 0.568058 0.0564912 0.451969 0.6956
C_ C_ 0.566637 0.305404 0.451661 0.6956
C_ C_ 0.812499 0.0550825 0.444919 0.6956
C_ C_ 0.816486 0.305428 0.450445 0.6956
C_ C_ 0.556866 0.0685244 0.496377 -0.16651
C_ C_ 0.555764 0.316556 0.496425 -0.16651
C_ C_ 0.805114 0.0664289 0.490384 -0.16651
C_ C_ 0.808088 0.315353 0.49504 -0.16651
C_ C_ 0.752522 0.0616807 0.0400918 -0.12085
C_ C_ 0.754791 0.303385 0.0429042 -0.12085
C_ C_ 0.00898798 0.0579652 0.0439683 -0.12085
C_ C_ 0.00547769 0.301761 0.0437605 -0.12085
C_ C_ 0.565763 0.108214 0.0665657 0.16698
C_ C_ 0.569382 0.363865 0.0664121 0.16698
C_ C_ 0.816325 0.110616 0.0667495 0.16698
C_ C_ 0.815926 0.355087 0.0658031 0.16698
C_ C_ 0.56377 0.121697 0.131762 0.36401
C_ C_ 0.565011 0.377511 0.132632 0.36401
C_ C_ 0.811728 0.123712 0.132773 0.36401
C_ C_ 0.813556 0.370377 0.131738 0.36401
C_ C_ 0.528894 0.0864752 0.0736573 0.16698
C_ C_ 0.534433 0.339501 0.0743636 0.16698
C_ C_ 0.779292 0.0911789 0.0730138 0.16698
C_ C_ 0.779081 0.334363 0.0733356 0.16698
C_ C_ 0.519242 0.0477371 0.504948 -0.12085
C_ C_ 0.521666 0.293848 0.507327 -0.12085
C_ C_ 0.77013 0.0453128 0.50373 -0.12085
C_ C_ 0.777545 0.292211 0.508964 -0.12085
C_ C_ 0.577974 0.137446 0.180224 0.15351
C_ C_ 0.580127 0.390211 0.181129 0.15351
C_ C_ 0.826979 0.13825 0.18191 0.15351
C_ C_ 0.824686 0.386936 0.179093 0.15351
C_ C_ 0.589642 0.174769 0.200854 -0.35079
C_ C_ 0.592176 0.427902 0.201919 -0.35079
C_ C_ 0.838116 0.177189 0.200653 -0.35079
C_ C_ 0.840906 0.424851 0.19665 -0.35079
C_ C_ 0.506251 0.0914674 0.280258 -0.12085
C_ C_ 0.509518 0.344271 0.282618 -0.12085
C_ C_ 0.768128 0.0991004 0.276787 -0.12085
C_ C_ 0.762156 0.343315 0.27289 -0.12085
C_ C_ 0.746348 0.0568505 0.19887 0.6956
C_ C_ 0.737133 0.301894 0.194335 0.6956
C_ C_ 0.99061 0.0542181 0.198338 0.6956
C_ C_ 0.985202 0.305031 0.201048 0.6956
C_ C_ 0.503161 0.0601335 0.247288 -0.16651
C_ C_ 0.509721 0.315794 0.25032 -0.16651
C_ C_ 0.761968 0.066628 0.245076 -0.16651
C_ C_ 0.757144 0.312237 0.240276 -0.16651
C_ C_ 0.540138 0.0514602 0.299054 -0.12085
C_ C_ 0.547644 0.305449 0.299925 -0.12085
C_ C_ 0.805111 0.0594281 0.295148 -0.12085
C_ C_ 0.793657 0.303218 0.291654 -0.12085
C_ C_ 0.526682 0.101447 0.320348 0.16698
C_ C_ 0.527873 0.351341 0.323903 0.16698
C_ C_ 0.786232 0.107487 0.318015 0.16698
C_ C_ 0.785771 0.354262 0.311056 0.16698
C_ C_ 0.570048 0.130356 0.376763 0.36401
C_ C_ 0.566098 0.37962 0.383005 0.36401
C_ C_ 0.822582 0.133613 0.378792 0.36401
C_ C_ 0.812791 0.374892 0.377506 0.36401
C_ C_ 0.542369 0.0810611 0.328747 0.16698
C_ C_ 0.546606 0.331937 0.331257 0.16698
C_ C_ 0.802263 0.0867863 0.325854 0.16698
C_ C_ 0.805145 0.335428 0.318135 0.16698
C_ C_ 0.522052 0.0413063 0.258254 -0.12085
C_ C_ 0.524021 0.29355 0.261657 -0.12085
C_ C_ 0.784413 0.0489788 0.25531 -0.12085
C_ C_ 0.771432 0.291989 0.251819 -0.12085
C_ C_ 0.596165 0.158584 0.415908 0.15351
C_ C_ 0.5935 0.410397 0.420827 0.15351
C_ C_ 0.848781 0.161173 0.4173 0.15351
C_ C_ 0.832293 0.400833 0.422318 0.15351
C_ C_ 0.634555 0.184208 0.405781 -0.35079
C_ C_ 0.632441 0.433831 0.411812 -0.35079
C_ C_ 0.884752 0.187631 0.403959 -0.35079
C_ C_ 0.871106 0.42926 0.423062 -0.35079
C_ C_ 0.673019 0.154977 0.475956 -0.12085
C_ C_ 0.675107 0.403829 0.476176 -0.12085
C_ C_ 0.928807 0.153136 0.477948 -0.12085
C_ C_ 0.920237 0.401245 0.474065 -0.12085
C_ C_ 0.680965 0.192488 0.0519652 0.6956
C_ C_ 0.6886 0.445526 0.0507851 0.6956
C_ C_ 0.935774 0.191158 0.0509874 0.6956
C_ C_ 0.931455 0.440259 0.0492554 0.6956
C_ C_ 0.690371 0.183635 0.00703281 -0.16651
C_ C_ 0.700937 0.433331 0.00891418 -0.16651
C_ C_ 0.943483 0.182609 0.00476036 -0.16651
C_ C_ 0.943757 0.430382 0.00520127 -0.16651
C_ C_ 0.489753 0.198372 0.453942 -0.12085
C_ C_ 0.492689 0.439415 0.457074 -0.12085
C_ C_ 0.746631 0.193415 0.454808 -0.12085
C_ C_ 0.745469 0.44665 0.455943 -0.12085
C_ C_ 0.685796 0.140183 0.437056 0.16698
C_ C_ 0.686169 0.393127 0.435044 0.16698
C_ C_ 0.937388 0.145217 0.43394 0.16698
C_ C_ 0.933689 0.391099 0.434346 0.16698
C_ C_ 0.686648 0.123487 0.369182 0.36401
C_ C_ 0.690375 0.372768 0.369872 0.36401
C_ C_ 0.941681 0.128417 0.368969 0.36401
C_ C_ 0.93837 0.375449 0.365847 0.36401
C_ C_ 0.722946 0.160199 0.427011 0.16698
C_ C_ 0.719741 0.415055 0.424481 0.16698
C_ C_ 0.9747 0.166721 0.427149 0.16698
C_ C_ 0.971521 0.410811 0.425739 0.16698
C_ C_ 0.727501 0.20512 0.99628 -0.12085
C_ C_ 0.739074 0.451331 1.00115 -0.12085
C_ C_ 0.982412 0.203342 0.995973 -0.12085
C_ C_ 0.977059 0.453015 0.993886 -0.12085
C_ C_ 0.671329 0.106822 0.321511 0.15351
C_ C_ 0.677694 0.355001 0.320208 0.15351
C_ C_ 0.928629 0.111566 0.320965 0.15351
C_ C_ 0.92313 0.360137 0.318496 0.15351
C_ C_ 0.671328 0.0721663 0.305236 -0.35079
C_ C_ 0.671705 0.317852 0.308279 -0.35079
C_ C_ 0.914785 0.0725763 0.302734 -0.35079
C_ C_ 0.909057 0.3212 0.303436 -0.35079
N_ N_ 0.70831 0.120254 0.152009 -0.51457
N_ N_ 0.706257 0.366973 0.14531 -0.51457
N_ N_ 0.960124 0.116994 0.145515 -0.51457
N_ N_ 0.957359 0.363088 0.148703 -0.51457
N_ N_ 0.679884 0.153676 0.136532 -0.51457
N_ N_ 0.682622 0.404262 0.130906 -0.51457
N_ N_ 0.93176 0.149954 0.130471 -0.51457
N_ N_ 0.928413 0.397619 0.135526 -0.51457
N_ N_ 0.58846 0.131679 0.10272 -0.51457
N_ N_ 0.591423 0.387921 0.10305 -0.51457
N_ N_ 0.839131 0.132526 0.104495 -0.51457
N_ N_ 0.837938 0.381307 0.102319 -0.51457
N_ N_ 0.526721 0.0957617 0.115279 -0.51457
N_ N_ 0.530703 0.34763 0.115042 -0.51457
N_ N_ 0.775823 0.0950393 0.114176 -0.51457
N_ N_ 0.776328 0.343829 0.115288 -0.51457
N_ N_ 0.542832 0.134206 0.351275 -0.51457
N_ N_ 0.540063 0.381948 0.356292 -0.51457
N_ N_ 0.798421 0.137466 0.351373 -0.51457
N_ N_ 0.793036 0.382354 0.347473 -0.51457
N_ N_ 0.569476 0.0979117 0.364857 -0.51457
N_ N_ 0.571088 0.349931 0.368717 -0.51457
N_ N_ 0.823527 0.102302 0.36497 -0.51457
N_ N_ 0.823136 0.347971 0.358641 -0.51457
N_ N_ 0.661073 0.116789 0.400016 -0.51457
N_ N_ 0.663504 0.365934 0.399234 -0.51457
N_ N_ 0.914446 0.120638 0.397096 -0.51457
N_ N_ 0.911214 0.368448 0.395698 -0.51457
N_ N_ 0.723398 0.150978 0.38532 -0.51457
N_ N_ 0.725675 0.400851 0.384782 -0.51457
N_ N_ 0.977611 0.15748 0.386414 -0.51457
N_ N_ 0.974906 0.401204 0.384203 -0.51457
O_ O_ 0.528134 0.229369 0.324724 -0.61362
O_ O_ 0.514881 0.47503 0.329892 -0.61362
O_ O_ 0.770454 0.227818 0.33188 -0.61362
O_ O_ 0.781816 0.48118 0.319638 -0.61362
O_ O_ 0.561758 0.216922 0.385346 -0.98607
O_ O_ 0.558401 0.466295 0.380069 -0.98607
O_ O_ 0.813849 0.216978 0.383121 -0.98607
O_ O_ 0.805188 0.465625 0.381592 -0.98607
O_ O_ 0.519752 0.173407 0.315965 -0.61362
O_ O_ 0.520843 0.425618 0.313996 -0.61362
O_ O_ 0.771229 0.174928 0.313419 -0.61362
O_ O_ 0.770888 0.425489 0.308096 -0.61362
O_ O_ 0.670726 0.074202 0.0663377 -0.55956
O_ O_ 0.688918 0.332774 0.059294 -0.55956
O_ O_ 0.929225 0.0750254 0.0557717 -0.55956
O_ O_ 0.922858 0.321216 0.0578436 -0.55956
O_ O_ 0.545934 0.0261675 0.426302 -0.61362
O_ O_ 0.546461 0.2739 0.425176 -0.61362
O_ O_ 0.789193 0.0220559 0.42077 -0.61362
O_ O_ 0.794929 0.273452 0.425214 -0.61362
O_ O_ 0.592061 0.0360356 0.374915 -0.98607
O_ O_ 0.599153 0.286486 0.376792 -0.98607
O_ O_ 0.846598 0.0371103 0.373969 -0.98607
O_ O_ 0.847864 0.287235 0.374278 -0.98607
O_ O_ 0.594812 0.0811399 0.439312 -0.61362
O_ O_ 0.593738 0.328135 0.438877 -0.61362
O_ O_ 0.836685 0.0770007 0.429244 -0.61362
O_ O_ 0.842002 0.328716 0.436178 -0.61362
O_ O_ 0.605883 0.130217 0.191941 -0.55956
O_ O_ 0.606585 0.381111 0.190361 -0.55956
O_ O_ 0.85636 0.132511 0.190372 -0.55956
O_ O_ 0.851331 0.378632 0.192935 -0.55956
O_ O_ 0.73504 0.0241144 0.174669 -0.61362
O_ O_ 0.725198 0.269128 0.16962 -0.61362
O_ O_ 0.983077 0.023385 0.171876 -0.61362
O_ O_ 0.975418 0.273112 0.176821 -0.61362
O_ O_ 0.692975 0.0354757 0.121859 -0.98607
O_ O_ 0.688083 0.284386 0.116584 -0.98607
O_ O_ 0.9432 0.0340234 0.118075 -0.98607
O_ O_ 0.941678 0.280349 0.114426 -0.98607
O_ O_ 0.732245 0.0761919 0.189496 -0.61362
O_ O_ 0.719634 0.320002 0.185003 -0.61362
O_ O_ 0.979189 0.0745021 0.187996 -0.61362
O_ O_ 0.985108 0.328289 0.186166 -0.61362
O_ O_ 0.578334 0.17563 0.438456 -0.55956
O_ O_ 0.574933 0.427696 0.439781 -0.55956
O_ O_ 0.830435 0.17663 0.439973 -0.55956
O_ O_ 0.81019 0.413465 0.441737 -0.55956
O_ O_ 0.701525 0.222833 0.0797426 -0.61362
O_ O_ 0.706772 0.477651 0.0738024 -0.61362
O_ O_ 0.959941 0.222208 0.0785534 -0.61362
O_ O_ 0.954753 0.469985 0.077142 -0.61362
O_ O_ 0.650421 0.212133 0.127583 -0.98607
O_ O_ 0.660034 0.466025 0.127862 -0.98607
O_ O_ 0.905268 0.211035 0.125032 -0.98607
O_ O_ 0.903985 0.461481 0.127947 -0.98607
O_ O_ 0.654275 0.168543 0.0642997 -0.61362
O_ O_ 0.65644 0.426625 0.0599906 -0.61362
O_ O_ 0.90215 0.172514 0.0630323 -0.61362
O_ O_ 0.905319 0.416359 0.0620492 -0.61362
O_ O_ 0.635686 0.10422 0.312862 -0.55956
O_ O_ 0.644919 0.354577 0.307296 -0.55956
O_ O_ 0.898557 0.115874 0.307831 -0.55956
O_ O_ 0.895788 0.366869 0.306227 -0.55956
Zn Zn 0.523077 0.175892 0.869743 0.91541
Zn Zn 0.525289 0.423394 0.865446 0.91541
Zn Zn 0.769464 0.172478 0.86358 0.91541
Zn Zn 0.778863 0.425429 0.865838 0.91541
Zn Zn 0.601138 0.0818194 0.887054 0.91541
Zn Zn 0.605379 0.332434 0.886953 0.91541
Zn Zn 0.851391 0.0816527 0.88342 0.91541
Zn Zn 0.852119 0.328913 0.885307 0.91541
Zn Zn 0.726603 0.0746942 0.630195 0.91541
Zn Zn 0.730836 0.327559 0.636569 0.91541
Zn Zn 0.970268 0.0757937 0.63562 0.91541
Zn Zn 0.980215 0.325868 0.636179 0.91541
Zn Zn 0.649806 0.169707 0.615184 0.91541
Zn Zn 0.64789 0.420247 0.613837 0.91541
Zn Zn 0.901795 0.172236 0.612119 0.91541
Zn Zn 0.902309 0.420852 0.615821 0.91541
Zn Zn 0.555839 1.00392597 0.875821 1.11764
Zn Zn 0.553533 0.256288 0.875264 1.11764
Zn Zn 0.804539 0.00206656 0.875633 1.11764
Zn Zn 0.802014 0.251165 0.871645 1.11764
Zn Zn 0.697688 0.497678 0.622196 1.11764
Zn Zn 0.706149 0.250197 0.627043 1.11764
Zn Zn 0.95005 0.496839 0.628577 1.11764
Zn Zn 0.952394 0.250845 0.623312 1.11764
H_ H_ 0.751967 0.136299 0.726559 0.1146
H_ H_ 0.736378 0.383442 0.735179 0.1146
H_ H_ -0.010098999999999969 0.136321 0.734155 0.1146
H_ H_ 0.00521774 0.387233 0.728151 0.1146
H_ H_ 0.68778 0.203722 0.690876 0.1146
H_ H_ 0.695462 0.461964 0.689234 0.1146
H_ H_ 0.945072 0.213456 0.691158 0.1146
H_ H_ 0.940662 0.454257 0.694024 0.1146
H_ H_ 0.712691 0.218668 0.765838 0.1146
H_ H_ 0.731228 0.482401 0.765006 0.1146
H_ H_ 0.979007 0.230524 0.767324 0.1146
H_ H_ 0.969629 0.46903 0.770958 0.1146
H_ H_ 0.703472 0.0809142 0.534884 0.42917
H_ H_ 0.68964 0.318825 0.530915 0.42917
H_ H_ 0.944079 0.079385 0.544366 0.42917
H_ H_ 0.932236 0.307537 0.540553 0.42917
H_ H_ 0.656198 0.105268 0.554023 0.1146
H_ H_ 0.656303 0.352797 0.558521 0.1146
H_ H_ 0.895311 0.102286 0.562995 0.1146
H_ H_ 0.904002 0.352897 0.558464 0.1146
H_ H_ 0.638166 0.0508454 0.596461 0.1146
H_ H_ 0.611846 0.294196 0.558605 0.1146
H_ H_ 0.869513 0.0469715 0.609274 0.1146
H_ H_ 0.880455 0.307615 0.619402 0.1146
H_ H_ 0.61018 0.0748237 0.594151 0.1146
H_ H_ 0.637625 0.303429 0.611894 0.1146
H_ H_ 0.85448 0.0818375 0.619614 0.1146
H_ H_ 0.856987 0.331708 0.609811 0.1146
H_ H_ 0.617288 0.0501766 0.542292 0.1146
H_ H_ 0.609884 0.326847 0.60635 0.1146
H_ H_ 0.839702 0.0496518 0.571687 0.1146
H_ H_ 0.854213 0.293527 0.570844 0.1146
H_ H_ 0.576753 0.224909 0.900873 0.42917
H_ H_ 0.586413 0.473969 0.894226 0.42917
H_ H_ 0.82099 0.221469 0.899886 0.42917
H_ H_ 0.836929 0.473468 0.881532 0.42917
H_ H_ 0.608312 0.117228 0.52671 0.1146
H_ H_ 0.609584 0.365586 0.525375 0.1146
H_ H_ 0.860836 0.111942 0.519375 0.1146
H_ H_ 0.863896 0.362636 0.520347 0.1146
H_ H_ 0.736296 0.034559 0.553875 0.1146
H_ H_ 0.738015 0.286459 0.556538 0.1146
H_ H_ 0.97859 0.0424646 0.550467 0.1146
H_ H_ 0.99033 0.282768 0.550759 0.1146
H_ H_ 0.740501 0.0292673 0.974314 0.1146
H_ H_ 0.742945 0.273063 0.973174 0.1146
H_ H_ 0.997541 0.0274671 0.976836 0.1146
H_ H_ -0.002314999999999956 0.270742 0.978843 0.1146
H_ H_ 0.630692 0.132777 0.696021 0.42917
H_ H_ 0.618878 0.390108 0.712766 0.42917
H_ H_ 0.878874 0.131189 0.695651 0.42917
H_ H_ 0.880266 0.386702 0.688467 0.42917
H_ H_ 0.553874 0.120964 0.69683 0.1146
H_ H_ 0.5528 0.381668 0.69737 0.1146
H_ H_ 0.80607 0.127372 0.698418 0.1146
H_ H_ 0.807955 0.382378 0.696118 0.1146
H_ H_ 0.563855 0.177675 0.707662 0.1146
H_ H_ 0.560708 0.438296 0.677452 0.1146
H_ H_ 0.849932 0.191913 0.72762 0.1146
H_ H_ 0.832149 0.445799 0.725724 0.1146
H_ H_ 0.609678 0.182145 0.739789 0.1146
H_ H_ 0.579772 0.44147 0.727063 0.1146
H_ H_ 0.864547 0.192937 0.674945 0.1146
H_ H_ 0.864626 0.446947 0.681846 0.1146
H_ H_ 0.614361 0.190663 0.690608 0.1146
H_ H_ 0.613904 0.451758 0.688372 0.1146
H_ H_ 0.814163 0.180751 0.683512 0.1146
H_ H_ 0.812022 0.433634 0.672955 0.1146
H_ H_ 0.616834 0.0357902 0.875568 0.42917
H_ H_ 0.614411 0.283593 0.868658 0.42917
H_ H_ 0.865805 0.0362989 0.872334 0.42917
H_ H_ 0.864916 0.283023 0.86473 0.42917
H_ H_ 0.49988 0.113859 0.769755 0.1146
H_ H_ 0.495019 0.35891 0.76883 0.1146
H_ H_ 0.738134 0.106436 0.774886 0.1146
H_ H_ 0.753096 0.363264 0.776069 0.1146
H_ H_ 0.55754 0.0424715 0.807303 0.1146
H_ H_ 0.558909 0.28843 0.801502 0.1146
H_ H_ 0.816183 0.0467614 0.803208 0.1146
H_ H_ 0.807716 0.289855 0.810265 0.1146
H_ H_ 0.518119 0.0219855 0.732431 0.1146
H_ H_ 0.525612 0.273645 0.729803 0.1146
H_ H_ 0.783682 0.0297008 0.731018 0.1146
H_ H_ 0.7736 0.272761 0.739247 0.1146
H_ H_ 0.570924 0.190398 0.965439 0.42917
H_ H_ 0.567972 0.43348 0.961434 0.42917
H_ H_ 0.820562 0.185119 0.970763 0.42917
H_ H_ 0.82838 0.437131 0.970965 0.42917
H_ H_ 0.600318 0.14733 0.935142 0.1146
H_ H_ 0.594437 0.393259 0.93759 0.1146
H_ H_ 0.846164 0.145584 0.937221 0.1146
H_ H_ 0.859755 0.398135 0.943387 0.1146
H_ H_ 0.622845 0.210611 0.90974 0.1146
H_ H_ 0.645444 0.416288 0.88746 0.1146
H_ H_ 0.895598 0.20642 0.943041 0.1146
H_ H_ 0.895638 0.417816 0.879611 0.1146
H_ H_ 0.638889 0.178996 0.880745 0.1146
H_ H_ 0.658206 0.447747 0.934961 0.1146
H_ H_ 0.866077 0.196446 0.890631 0.1146
H_ H_ 0.906654 0.44713 0.930142 0.1146
H_ H_ 0.654641 0.200039 0.935783 0.1146
H_ H_ 0.626357 0.445372 0.888422 0.1146
H_ H_ 0.89366 0.171753 0.895055 0.1146
H_ H_ 0.874173 0.446854 0.888704 0.1146
H_ H_ 0.678446 0.0250779 0.589105 0.42917
H_ H_ 0.677721 0.277352 0.60521 0.42917
H_ H_ 0.920563 0.0276205 0.59787 0.42917
H_ H_ 0.933123 0.279527 0.588852 0.42917
H_ H_ 0.638516 0.139122 0.980868 0.1146
H_ H_ 0.644483 0.391446 0.978393 0.1146
H_ H_ 0.88798 0.138442 0.978926 0.1146
H_ H_ 0.91014 0.377238 0.988854 0.1146
H_ H_ 0.513592 0.209788 0.947466 0.1146
H_ H_ 0.519282 0.462376 0.949636 0.1146
H_ H_ 0.766564 0.214993 0.952366 0.1146
H_ H_ 0.775297 0.459411 0.953976 0.1146
H_ H_ 0.49786 0.233612 0.516978 0.1146
H_ H_ 0.497815 0.47405 0.520227 0.1146
H_ H_ 0.756892 0.224692 0.521499 0.1146
H_ H_ 0.760292 0.474041 0.520508 0.1146
H_ H_ 0.621891 0.123029 0.7938 0.42917
H_ H_ 0.618227 0.349723 0.795275 0.42917
H_ H_ 0.878781 0.127632 0.805775 0.42917
H_ H_ 0.88295 0.365616 0.785394 0.42917
H_ H_ 0.692803 0.132789 0.806321 0.1146
H_ H_ 0.70131 0.375254 0.803934 0.1146
H_ H_ 0.948208 0.126713 0.801975 0.1146
H_ H_ 0.947526 0.371346 0.803927 0.1146
H_ H_ 0.647345 0.0693588 0.770733 0.1146
H_ H_ 0.672186 0.318266 0.7729 0.1146
H_ H_ 0.939611 0.0715102 0.805294 0.1146
H_ H_ 0.93286 0.312024 0.821765 0.1146
H_ H_ 0.633396 0.0650916 0.818648 0.1146
H_ H_ 0.645009 0.307722 0.813954 0.1146
H_ H_ 0.908633 0.0680044 0.76304 0.1146
H_ H_ 0.91707 0.309531 0.770459 0.1146
H_ H_ 0.687315 0.0773356 0.81192 0.1146
H_ H_ 0.695545 0.320905 0.820175 0.1146
H_ H_ 0.884143 0.0580112 0.807333 0.1146
H_ H_ 0.881349 0.304712 0.806652 0.1146
H_ H_ 0.64271 0.219184 0.634572 0.42917
H_ H_ 0.63718 0.46927 0.637308 0.42917
H_ H_ 0.88722 0.219584 0.625816 0.42917
H_ H_ 0.886856 0.467628 0.625222 0.42917
C_ C_ 0.741466 0.153839 0.719255 -0.12085
C_ C_ 0.732771 0.402416 0.724473 -0.12085
C_ C_ 0.981265 0.153035 0.724819 -0.12085
C_ C_ 0.99696 0.404527 0.720142 -0.12085
C_ C_ 0.507283 0.199304 0.805042 0.6956
C_ C_ 0.517237 0.448411 0.802909 0.6956
C_ C_ 0.764941 0.198448 0.795499 0.6956
C_ C_ 0.760608 0.447871 0.800682 0.6956
C_ C_ 0.742416 0.184008 0.752292 -0.16651
C_ C_ 0.737883 0.434871 0.755799 -0.16651
C_ C_ 0.991444 0.185821 0.754407 -0.16651
C_ C_ 0.996046 0.433058 0.753714 -0.16651
C_ C_ 0.703847 0.19152 0.700216 -0.12085
C_ C_ 0.705274 0.445358 0.700566 -0.12085
C_ C_ 0.961971 0.199903 0.698223 -0.12085
C_ C_ 0.957274 0.441564 0.70068 -0.12085
C_ C_ 0.726227 0.147205 0.676044 0.16698
C_ C_ 0.72269 0.396438 0.680707 0.16698
C_ C_ 0.968657 0.145648 0.680155 0.16698
C_ C_ 0.97893 0.396476 0.67665 0.16698
C_ C_ 0.688468 0.120885 0.617527 0.36401
C_ C_ 0.686959 0.369782 0.619677 0.36401
C_ C_ 0.930899 0.119164 0.621142 0.36401
C_ C_ 0.939199 0.368127 0.617878 0.36401
C_ C_ 0.711399 0.168842 0.667554 0.16698
C_ C_ 0.707744 0.41741 0.669325 0.16698
C_ C_ 0.957423 0.167586 0.66806 0.16698
C_ C_ 0.962811 0.417201 0.66693 0.16698
C_ C_ 0.72184 0.201571 0.74105 -0.12085
C_ C_ 0.725499 0.456428 0.742749 -0.12085
C_ C_ 0.977319 0.207697 0.742082 -0.12085
C_ C_ 0.974985 0.450511 0.743814 -0.12085
C_ C_ 0.665824 0.0935622 0.57501 0.15351
C_ C_ 0.665415 0.342029 0.577923 0.15351
C_ C_ 0.905946 0.0908362 0.583203 0.15351
C_ C_ 0.910908 0.339324 0.579523 0.15351
C_ C_ 0.629781 0.0641632 0.576987 -0.35079
C_ C_ 0.630081 0.314796 0.590145 -0.35079
C_ C_ 0.866752 0.0656448 0.59506 -0.35079
C_ C_ 0.87378 0.316846 0.595374 -0.35079
C_ C_ 0.579851 0.100023 0.529408 -0.12085
C_ C_ 0.580063 0.3489 0.527458 -0.12085
C_ C_ 0.832614 0.0978657 0.524491 -0.12085
C_ C_ 0.834023 0.347759 0.526185 -0.12085
C_ C_ 0.563275 0.0592567 0.95019 0.6956
C_ C_ 0.563819 0.313189 0.950246 0.6956
C_ C_ 0.813739 0.0595852 0.947357 0.6956
C_ C_ 0.813867 0.307641 0.946774 0.6956
C_ C_ 0.551426 0.068831 0.993433 -0.16651
C_ C_ 0.55092 0.32411 0.99241 -0.16651
C_ C_ 0.801684 0.0715966 0.991118 -0.16651
C_ C_ 0.801587 0.31935 0.991216 -0.16651
C_ C_ 0.761342 0.054539 0.544781 -0.12085
C_ C_ 0.765367 0.304315 0.549045 -0.12085
C_ C_ 0.00608512 0.0583579 0.545194 -0.12085
C_ C_ 0.0114076 0.303854 0.542635 -0.12085
C_ C_ 0.567024 0.107054 0.567242 0.16698
C_ C_ 0.566357 0.359955 0.566418 0.16698
C_ C_ 0.821102 0.107001 0.565391 0.16698
C_ C_ 0.821036 0.357802 0.564628 0.16698
C_ C_ 0.563747 0.123949 0.634661 0.36401
C_ C_ 0.567359 0.378094 0.634457 0.36401
C_ C_ 0.818717 0.123846 0.632255 0.36401
C_ C_ 0.819676 0.376161 0.633498 0.36401
C_ C_ 0.529096 0.0868686 0.574168 0.16698
C_ C_ 0.529567 0.338548 0.575495 0.16698
C_ C_ 0.785445 0.0854851 0.573913 0.16698
C_ C_ 0.786792 0.336413 0.575694 0.16698
C_ C_ 0.517992 0.0448962 0.00412746 -0.12085
C_ C_ 0.515595 0.302423 0.00468746 -0.12085
C_ C_ 0.763507 0.0523751 -0.00150316 -0.12085
C_ C_ 0.764413 0.297527 0.0001100000000000545 -0.12085
C_ C_ 0.579398 0.135816 0.68398 0.15351
C_ C_ 0.578588 0.396733 0.681005 0.15351
C_ C_ 0.831284 0.140457 0.680381 0.15351
C_ C_ 0.830926 0.396114 0.680171 0.15351
C_ C_ 0.592554 0.174264 0.706028 -0.35079
C_ C_ 0.584097 0.433685 0.693193 -0.35079
C_ C_ 0.841278 0.178057 0.692623 -0.35079
C_ C_ 0.835806 0.433011 0.691986 -0.35079
C_ C_ 0.506788 0.0965322 0.779585 -0.12085
C_ C_ 0.506285 0.342404 0.777354 -0.12085
C_ C_ 0.756731 0.0950805 0.779565 -0.12085
C_ C_ 0.762662 0.346348 0.782441 -0.12085
C_ C_ 0.73651 0.0535093 0.699232 0.6956
C_ C_ 0.740494 0.304235 0.704715 0.6956
C_ C_ 0.989611 0.0523923 0.696246 0.6956
C_ C_ 0.985539 0.300864 0.700781 0.6956
C_ C_ 0.502008 0.064499 0.748788 -0.16651
C_ C_ 0.501405 0.310995 0.744948 -0.16651
C_ C_ 0.758883 0.0682208 0.744121 -0.16651
C_ C_ 0.759084 0.315603 0.750322 -0.16651
C_ C_ 0.541379 0.0567553 0.800042 -0.12085
C_ C_ 0.542512 0.302677 0.796988 -0.12085
C_ C_ 0.80199 0.0614149 0.795618 -0.12085
C_ C_ 0.793457 0.304326 0.802571 -0.12085
C_ C_ 0.527172 0.107106 0.822486 0.16698
C_ C_ 0.525436 0.351132 0.819326 0.16698
C_ C_ 0.776773 0.104442 0.820105 0.16698
C_ C_ 0.778643 0.354235 0.824707 0.16698
C_ C_ 0.561019 0.130439 0.882733 0.36401
C_ C_ 0.563014 0.377809 0.877789 0.36401
C_ C_ 0.811693 0.130942 0.881108 0.36401
C_ C_ 0.817973 0.381518 0.885061 0.36401
C_ C_ 0.543797 0.0874326 0.829978 0.16698
C_ C_ 0.543178 0.331453 0.828445 0.16698
C_ C_ 0.795058 0.0854713 0.828443 0.16698
C_ C_ 0.793565 0.333703 0.83412 0.16698
C_ C_ 0.520246 0.0446823 0.758897 -0.12085
C_ C_ 0.522655 0.292644 0.756141 -0.12085
C_ C_ 0.780878 0.0506547 0.755027 -0.12085
C_ C_ 0.773349 0.294829 0.762389 -0.12085
C_ C_ 0.590525 0.161792 0.91927 0.15351
C_ C_ 0.590618 0.406705 0.916568 0.15351
C_ C_ 0.837681 0.159555 0.920491 0.15351
C_ C_ 0.846863 0.409702 0.922327 0.15351
C_ C_ 0.629332 0.188973 0.910335 -0.35079
C_ C_ 0.631838 0.431299 0.908567 -0.35079
C_ C_ 0.876206 0.186684 0.91256 -0.35079
C_ C_ 0.881412 0.430349 0.904092 -0.35079
C_ C_ 0.667313 0.152524 0.974835 -0.12085
C_ C_ 0.674277 0.40411 0.976137 -0.12085
C_ C_ 0.918075 0.15151 0.972181 -0.12085
C_ C_ 0.922311 0.39648 0.974427 -0.12085
C_ C_ 0.692578 0.197806 0.551225 0.6956
C_ C_ 0.686258 0.445097 0.551112 0.6956
C_ C_ 0.942404 0.19404 0.55251 0.6956
C_ C_ 0.939495 0.440708 0.551875 0.6956
C_ C_ 0.70176 0.183736 0.507077 -0.16651
C_ C_ 0.699154 0.433859 0.507609 -0.16651
C_ C_ 0.954483 0.182965 0.508928 -0.16651
C_ C_ 0.947164 0.4319 0.505786 -0.16651
C_ C_ 0.492484 0.190142 0.95845 -0.12085
C_ C_ 0.493854 0.442264 0.957258 -0.12085
C_ C_ 0.740413 0.194009 0.957334 -0.12085
C_ C_ 0.748658 0.443065 0.959009 -0.12085
C_ C_ 0.681104 0.143962 0.935926 0.16698
C_ C_ 0.68702 0.390918 0.93624 0.16698
C_ C_ 0.93073 0.14343 0.931314 0.16698
C_ C_ 0.933702 0.388693 0.93197 0.16698
C_ C_ 0.681241 0.130402 0.867989 0.36401
C_ C_ 0.68758 0.378261 0.869207 0.36401
C_ C_ 0.934573 0.12753 0.864456 0.36401
C_ C_ 0.933122 0.374692 0.865787 0.36401
C_ C_ 0.717029 0.163438 0.926334 0.16698
C_ C_ 0.724752 0.412338 0.928632 0.16698
C_ C_ 0.967146 0.163661 0.924255 0.16698
C_ C_ 0.968803 0.411948 0.922073 0.16698
C_ C_ 0.739732 0.201562 0.498299 -0.12085
C_ C_ 0.734443 0.455057 0.497474 -0.12085
C_ C_ 0.99393 0.202824 0.501199 -0.12085
C_ C_ 0.985137 0.450867 0.497249 -0.12085
C_ C_ 0.668055 0.118197 0.821224 0.15351
C_ C_ 0.67614 0.362297 0.821013 0.15351
C_ C_ 0.922473 0.112123 0.816928 0.15351
C_ C_ 0.920358 0.35619 0.818698 0.15351
C_ C_ 0.659896 0.080769 0.805072 -0.35079
C_ C_ 0.672428 0.326044 0.806766 -0.35079
C_ C_ 0.913485 0.0742859 0.798515 -0.35079
C_ C_ 0.912506 0.318458 0.805276 -0.35079
N_ N_ 0.713592 0.116927 0.642613 -0.51457
N_ N_ 0.709115 0.36542 0.648782 -0.51457
N_ N_ 0.952071 0.113606 0.650362 -0.51457
N_ N_ 0.965338 0.365641 0.645318 -0.51457
N_ N_ 0.686562 0.152712 0.630706 -0.51457
N_ N_ 0.683331 0.400736 0.632661 -0.51457
N_ N_ 0.933736 0.151692 0.630118 -0.51457
N_ N_ 0.937629 0.39935 0.631144 -0.51457
N_ N_ 0.590014 0.132398 0.60552 -0.51457
N_ N_ 0.590161 0.386161 0.603237 -0.51457
N_ N_ 0.844428 0.132257 0.601664 -0.51457
N_ N_ 0.844085 0.384562 0.603844 -0.51457
N_ N_ 0.526197 0.0970144 0.618292 -0.51457
N_ N_ 0.530644 0.348664 0.618025 -0.51457
N_ N_ 0.782784 0.0952159 0.615607 -0.51457
N_ N_ 0.785111 0.347661 0.618081 -0.51457
N_ N_ 0.53891 0.13635 0.856155 -0.51457
N_ N_ 0.538056 0.381763 0.851825 -0.51457
N_ N_ 0.789999 0.134715 0.851388 -0.51457
N_ N_ 0.794713 0.385222 0.856584 -0.51457
N_ N_ 0.567077 0.101664 0.867829 -0.51457
N_ N_ 0.568505 0.348623 0.864536 -0.51457
N_ N_ 0.813824 0.0992754 0.868195 -0.51457
N_ N_ 0.817591 0.34974 0.871305 -0.51457
N_ N_ 0.657261 0.121262 0.897138 -0.51457
N_ N_ 0.663811 0.3691 0.899243 -0.51457
N_ N_ 0.908645 0.119741 0.892729 -0.51457
N_ N_ 0.909635 0.363611 0.896309 -0.51457
N_ N_ 0.71757 0.156891 0.884068 -0.51457
N_ N_ 0.724789 0.404985 0.885595 -0.51457
N_ N_ 0.970191 0.156333 0.882455 -0.51457
N_ N_ 0.968677 0.403668 0.880876 -0.51457
O_ O_ 0.518543 0.231639 0.827712 -0.61362
O_ O_ 0.522171 0.478324 0.831378 -0.61362
O_ O_ 0.77312 0.228897 0.820187 -0.61362
O_ O_ 0.769443 0.478859 0.826572 -0.61362
O_ O_ 0.553867 0.220313 0.885871 -0.98607
O_ O_ 0.562478 0.468277 0.88468 -0.98607
O_ O_ 0.800204 0.216232 0.882325 -0.98607
O_ O_ 0.812611 0.468538 0.878973 -0.98607
O_ O_ 0.523076 0.18212 0.818915 -0.61362
O_ O_ 0.525595 0.426921 0.81315 -0.61362
O_ O_ 0.770129 0.177031 0.811958 -0.61362
O_ O_ 0.769858 0.427224 0.813262 -0.61362
O_ O_ 0.687931 0.081471 0.553978 -0.55956
O_ O_ 0.684539 0.326338 0.556327 -0.55956
O_ O_ 0.924459 0.0747175 0.560426 -0.55956
O_ O_ 0.925876 0.319092 0.562308 -0.55956
O_ O_ 0.540369 0.0301741 0.920006 -0.61362
O_ O_ 0.54554 0.281482 0.924052 -0.61362
O_ O_ 0.792838 0.0277246 0.923207 -0.61362
O_ O_ 0.791014 0.276285 0.919208 -0.61362
O_ O_ 0.59555 0.0372927 0.871994 -0.98607
O_ O_ 0.594869 0.288662 0.871328 -0.98607
O_ O_ 0.844737 0.0389466 0.87592 -0.98607
O_ O_ 0.844254 0.285874 0.86822 -0.98607
O_ O_ 0.594172 0.0815602 0.938822 -0.61362
O_ O_ 0.591378 0.337986 0.938149 -0.61362
O_ O_ 0.846422 0.0789474 0.936506 -0.61362
O_ O_ 0.847464 0.325702 0.937377 -0.61362
O_ O_ 0.606133 0.127589 0.694509 -0.55956
O_ O_ 0.608891 0.394487 0.692057 -0.55956
O_ O_ 0.865076 0.1405 0.688647 -0.55956
O_ O_ 0.862289 0.394896 0.694697 -0.55956
O_ O_ 0.732833 0.0238939 0.673822 -0.61362
O_ O_ 0.736832 0.274697 0.678217 -0.61362
O_ O_ 0.974323 0.0202948 0.671265 -0.61362
O_ O_ 0.983551 0.272475 0.672225 -0.61362
O_ O_ 0.694988 0.0308443 0.610894 -0.98607
O_ O_ 0.699994 0.282781 0.619201 -0.98607
O_ O_ 0.939797 0.0312896 0.616528 -0.98607
O_ O_ 0.948082 0.284555 0.612203 -0.98607
O_ O_ 0.728407 0.0742021 0.684335 -0.61362
O_ O_ 0.737024 0.328235 0.691158 -0.61362
O_ O_ 0.980767 0.0742688 0.686319 -0.61362
O_ O_ 0.978531 0.323432 0.68851 -0.61362
O_ O_ 0.570368 0.177318 0.941556 -0.55956
O_ O_ 0.575165 0.426398 0.936641 -0.55956
O_ O_ 0.819652 0.17504 0.944244 -0.55956
O_ O_ 0.833018 0.430098 0.945048 -0.55956
O_ O_ 0.7183 0.22706 0.57789 -0.61362
O_ O_ 0.710955 0.472908 0.580197 -0.61362
O_ O_ 0.96707 0.222284 0.584354 -0.61362
O_ O_ 0.959986 0.471674 0.579906 -0.61362
O_ O_ 0.662903 0.215079 0.630197 -0.98607
O_ O_ 0.65371 0.46294 0.627464 -0.98607
O_ O_ 0.907368 0.215778 0.623977 -0.98607
O_ O_ 0.905455 0.462223 0.625308 -0.98607
O_ O_ 0.660703 0.176837 0.563943 -0.61362
O_ O_ 0.656179 0.423142 0.561842 -0.61362
O_ O_ 0.913363 0.169947 0.562388 -0.61362
O_ O_ 0.907893 0.418125 0.561952 -0.61362
O_ O_ 0.635504 0.118139 0.81013 -0.55956
O_ O_ 0.64302 0.359756 0.808708 -0.55956
O_ O_ 0.890514 0.11448 0.80745 -0.55956
O_ O_ 0.89038 0.359104 0.804943 -0.55956
Zn Zn 0.523141 0.671755 0.366572 0.91541
Zn Zn 0.526125 0.925522 0.366101 0.91541
Zn Zn 0.771194 0.671245 0.360537 0.91541
Zn Zn 0.77536 0.92406 0.365308 0.91541
Zn Zn 0.60224 0.578145 0.386962 0.91541
Zn Zn 0.606176 0.831834 0.388442 0.91541
Zn Zn 0.855685 0.582245 0.382242 0.91541
Zn Zn 0.857353 0.830304 0.384148 0.91541
Zn Zn 0.721918 0.575469 0.134979 0.91541
Zn Zn 0.727763 0.827998 0.141303 0.91541
Zn Zn 0.975763 0.575212 0.137308 0.91541
Zn Zn 0.973306 0.826018 0.135852 0.91541
Zn Zn 0.64433 0.67193 0.116743 0.91541
Zn Zn 0.645393 0.920361 0.118044 0.91541
Zn Zn 0.895824 0.667575 0.110377 0.91541
Zn Zn 0.897135 0.923466 0.115419 0.91541
Zn Zn 0.550175 0.500138 0.374551 1.11764
Zn Zn 0.552335 0.752191 0.37357 1.11764
Zn Zn 0.807444 0.502325 0.372853 1.11764
Zn Zn 0.803548 0.751315 0.373618 1.11764
Zn Zn 0.696741 1.00045 0.129158 1.11764
Zn Zn 0.697207 0.750189 0.126025 1.11764
Zn Zn 0.948597 1.000221108 0.12674 1.11764
Zn Zn 0.947801 0.747399 0.123774 1.11764
H_ H_ 0.751971 0.6381 0.2282 0.1146
H_ H_ 0.753313 0.893522 0.235472 0.1146
H_ H_ -0.0011360000000000259 0.639252 0.227885 0.1146
H_ H_ -0.0135915 0.884735 0.232185 0.1146
H_ H_ 0.691829 0.712332 0.200616 0.1146
H_ H_ 0.694962 0.962346 0.191736 0.1146
H_ H_ 0.950789 0.713376 0.186112 0.1146
H_ H_ 0.950959 0.963806 0.186839 0.1146
H_ H_ 0.727604 0.726442 0.272433 0.1146
H_ H_ 0.726264 0.979818 0.268946 0.1146
H_ H_ 0.983103 0.728378 0.258635 0.1146
H_ H_ 0.975402 0.978845 0.265939 0.1146
H_ H_ 0.68825 0.577331 0.0354654 0.42917
H_ H_ 0.681056 0.815725 0.0449936 0.42917
H_ H_ 0.91659 0.561304 0.0341835 0.42917
H_ H_ 0.941872 0.83005 0.0307565 0.42917
H_ H_ 0.644575 0.606057 0.0623682 0.1146
H_ H_ 0.647161 0.848002 0.0669469 0.1146
H_ H_ 0.892542 0.597149 0.0666113 0.1146
H_ H_ 0.899445 0.857209 0.0601893 0.1146
H_ H_ 0.627537 0.546567 0.0968532 0.1146
H_ H_ 0.600761 0.825135 0.114926 0.1146
H_ H_ 0.846429 0.577296 0.115405 0.1146
H_ H_ 0.857182 0.800204 0.0474202 0.1146
H_ H_ 0.601774 0.575385 0.108915 0.1146
H_ H_ 0.601325 0.788188 0.0726979 0.1146
H_ H_ 0.842988 0.542812 0.0687996 0.1146
H_ H_ 0.881872 0.795091 0.0890432 0.1146
H_ H_ 0.601687 0.548705 0.0525576 0.1146
H_ H_ 0.62798 0.80648 0.131959 0.1146
H_ H_ 0.87548 0.553952 0.121654 0.1146
H_ H_ 0.857727 0.822514 0.103281 0.1146
H_ H_ 0.575308 0.723304 0.398993 0.42917
H_ H_ 0.58023 0.976868 0.394972 0.42917
H_ H_ 0.821666 0.720832 0.400465 0.42917
H_ H_ 0.821915 0.973883 0.402214 0.42917
H_ H_ 0.601366 0.613061 0.0222302 0.1146
H_ H_ 0.612899 0.863842 0.0212223 0.1146
H_ H_ 0.84328 0.621454 0.0114522 0.1146
H_ H_ 0.858715 0.866744 0.0233323 0.1146
H_ H_ 0.725406 0.541332 0.0548222 0.1146
H_ H_ 0.726555 0.796823 0.0514448 0.1146
H_ H_ 0.98075 0.535177 0.0530182 0.1146
H_ H_ 0.974577 0.790666 0.0489421 0.1146
H_ H_ 0.750521 0.524416 0.480731 0.1146
H_ H_ 0.751963 0.774324 0.479622 0.1146
H_ H_ 0.99941012 0.514346 0.481344 0.1146
H_ H_ -0.00560566 0.771389 0.480035 0.1146
H_ H_ 0.621579 0.633129 0.185312 0.42917
H_ H_ 0.615915 0.890603 0.219927 0.42917
H_ H_ 0.878342 0.636701 0.198554 0.42917
H_ H_ 0.862497 0.855574 0.184689 0.42917
H_ H_ 0.55108 0.631683 0.200406 0.1146
H_ H_ 0.545785 0.879046 0.192384 0.1146
H_ H_ 0.798387 0.626783 0.194517 0.1146
H_ H_ 0.807275 0.875213 0.194694 0.1146
H_ H_ 0.611161 0.696613 0.186979 0.1146
H_ H_ 0.582293 0.939931 0.224634 0.1146
H_ H_ 0.817219 0.686292 0.193702 0.1146
H_ H_ 0.831417 0.932714 0.219811 0.1146
H_ H_ 0.55907 0.687383 0.194178 0.1146
H_ H_ 0.618625 0.943531 0.188566 0.1146
H_ H_ 0.840722 0.682061 0.236389 0.1146
H_ H_ 0.870548 0.923746 0.239074 0.1146
H_ H_ 0.594152 0.69188 0.231633 0.1146
H_ H_ 0.566207 0.932258 0.170246 0.1146
H_ H_ 0.866896 0.693058 0.196902 0.1146
H_ H_ 0.877405 0.941507 0.195415 0.1146
H_ H_ 0.612928 0.530022 0.355853 0.42917
H_ H_ 0.610891 0.781055 0.365702 0.42917
H_ H_ 0.868716 0.536689 0.35852 0.42917
H_ H_ 0.864695 0.780813 0.358827 0.42917
H_ H_ 0.492952 0.60784 0.276315 0.1146
H_ H_ 0.497512 0.863207 0.275322 0.1146
H_ H_ 0.747269 0.610564 0.270285 0.1146
H_ H_ 0.744352 0.860328 0.275968 0.1146
H_ H_ 0.542683 0.533712 0.313939 0.1146
H_ H_ 0.554384 0.789113 0.310353 0.1146
H_ H_ 0.80549 0.538563 0.306238 0.1146
H_ H_ 0.81031 0.79359 0.309118 0.1146
H_ H_ 0.512238 0.515592 0.237313 0.1146
H_ H_ 0.521119 0.772645 0.235868 0.1146
H_ H_ 0.772026 0.520504 0.229884 0.1146
H_ H_ 0.768211 0.771397 0.239593 0.1146
H_ H_ 0.551051 0.66128 0.467971 0.42917
H_ H_ 0.554624 0.917348 0.461311 0.42917
H_ H_ 0.813096 0.686133 0.459681 0.42917
H_ H_ 0.822094 0.930619 0.462836 0.42917
H_ H_ 0.596029 0.639576 0.441625 0.1146
H_ H_ 0.601198 0.897497 0.445448 0.1146
H_ H_ 0.847893 0.648745 0.438441 0.1146
H_ H_ 0.859545 0.903143 0.432989 0.1146
H_ H_ 0.651309 0.67978 0.407821 0.1146
H_ H_ 0.645264 0.950243 0.457021 0.1146
H_ H_ 0.891958 0.708628 0.440758 0.1146
H_ H_ 0.899905 0.92477 0.379996 0.1146
H_ H_ 0.635542 0.702798 0.450743 0.1146
H_ H_ 0.630404 0.961928 0.415694 0.1146
H_ H_ 0.869179 0.698059 0.3867 0.1146
H_ H_ 0.900696 0.961104 0.421825 0.1146
H_ H_ 0.614574 0.693508 0.396133 0.1146
H_ H_ 0.649062 0.933327 0.399164 0.1146
H_ H_ 0.9023 0.681922 0.398447 0.1146
H_ H_ 0.871459 0.943233 0.371766 0.1146
H_ H_ 0.664235 0.52162 0.103801 0.42917
H_ H_ 0.670244 0.782149 0.109393 0.42917
H_ H_ 0.923906 0.526396 0.0933713 0.42917
H_ H_ 0.923759 0.774739 0.0942413 0.42917
H_ H_ 0.644928 0.635897 0.486015 0.1146
H_ H_ 0.645899 0.884172 0.48052 0.1146
H_ H_ 0.887503 0.639676 0.473251 0.1146
H_ H_ 0.894118 0.893757 0.479227 0.1146
H_ H_ 0.525033 0.704231 0.449852 0.1146
H_ H_ 0.515512 0.967219 0.446977 0.1146
H_ H_ 0.765248 0.70918 0.443467 0.1146
H_ H_ 0.774366 0.959858 0.447784 0.1146
H_ H_ 0.49637 0.730186 0.0211456 0.1146
H_ H_ 0.499904 0.977244 0.020664 0.1146
H_ H_ 0.735046 0.733532 0.0106288 0.1146
H_ H_ 0.744641 0.980793 0.0204293 0.1146
H_ H_ 0.619997 0.624678 0.307695 0.42917
H_ H_ 0.62932 0.874394 0.316801 0.42917
H_ H_ 0.869781 0.615316 0.303859 0.42917
H_ H_ 0.876343 0.859364 0.292668 0.42917
H_ H_ 0.692859 0.627905 0.305657 0.1146
H_ H_ 0.705222 0.877706 0.306659 0.1146
H_ H_ 0.947321 0.630878 0.303716 0.1146
H_ H_ 0.951496 0.875578 0.310369 0.1146
H_ H_ 0.675459 0.569278 0.292541 0.1146
H_ H_ 0.668596 0.818836 0.270173 0.1146
H_ H_ 0.881374 0.561582 0.296248 0.1146
H_ H_ 0.917414 0.814256 0.270891 0.1146
H_ H_ 0.6383 0.570252 0.262154 0.1146
H_ H_ 0.63885 0.812461 0.310352 0.1146
H_ H_ 0.932718 0.569209 0.298304 0.1146
H_ H_ 0.88264 0.808983 0.305958 0.1146
H_ H_ 0.62808 0.562269 0.312056 0.1146
H_ H_ 0.690394 0.818002 0.316103 0.1146
H_ H_ 0.90742 0.576796 0.258529 0.1146
H_ H_ 0.936655 0.816063 0.31989 0.1146
H_ H_ 0.634281 0.718679 0.127241 0.42917
H_ H_ 0.634763 0.969726 0.139962 0.42917
H_ H_ 0.890873 0.717956 0.144256 0.42917
H_ H_ 0.886503 0.972733 0.133262 0.42917
C_ C_ 0.737326 0.653018 0.221493 -0.12085
C_ C_ 0.738951 0.907586 0.227406 -0.12085
C_ C_ 0.990834 0.655365 0.216981 -0.12085
C_ C_ 0.988151 0.90502 0.220898 -0.12085
C_ C_ 0.514559 0.697561 0.300658 0.6956
C_ C_ 0.515525 0.948516 0.297782 0.6956
C_ C_ 0.769349 0.698369 0.297221 0.6956
C_ C_ 0.762469 0.95105 0.300644 0.6956
C_ C_ 0.744814 0.68568 0.253875 -0.16651
C_ C_ 0.743549 0.939987 0.257048 -0.16651
C_ C_ 0.999252 0.688013 0.246937 -0.16651
C_ C_ 0.993567 0.936416 0.25435 -0.16651
C_ C_ 0.700966 0.694436 0.207547 -0.12085
C_ C_ 0.707107 0.947542 0.202601 -0.12085
C_ C_ 0.963608 0.698061 0.193544 -0.12085
C_ C_ 0.958154 0.946572 0.200776 -0.12085
C_ C_ 0.711901 0.642362 0.183784 0.16698
C_ C_ 0.717147 0.895728 0.187373 0.16698
C_ C_ 0.974859 0.646086 0.175239 0.16698
C_ C_ 0.970189 0.896532 0.178052 0.16698
C_ C_ 0.68039 0.620421 0.120688 0.36401
C_ C_ 0.684077 0.868906 0.124786 0.36401
C_ C_ 0.931293 0.616138 0.118823 0.36401
C_ C_ 0.934903 0.871177 0.119231 0.36401
C_ C_ 0.696533 0.664193 0.176641 0.16698
C_ C_ 0.69909 0.91401 0.178097 0.16698
C_ C_ 0.959699 0.665992 0.164029 0.16698
C_ C_ 0.953017 0.916117 0.172175 0.16698
C_ C_ 0.724971 0.704382 0.2464 -0.12085
C_ C_ 0.72718 0.95908 0.24516 -0.12085
C_ C_ 0.986701 0.709375 0.234327 -0.12085
C_ C_ 0.977817 0.958469 0.242785 -0.12085
C_ C_ 0.656942 0.593889 0.0811743 0.15351
C_ C_ 0.656322 0.837627 0.0905306 0.15351
C_ C_ 0.90153 0.586038 0.0867423 0.15351
C_ C_ 0.911386 0.844709 0.0772541 0.15351
C_ C_ 0.618476 0.563437 0.0855689 -0.35079
C_ C_ 0.621098 0.813279 0.102828 -0.35079
C_ C_ 0.863366 0.563109 0.0976542 -0.35079
C_ C_ 0.874541 0.813358 0.0798041 -0.35079
C_ C_ 0.571315 0.600707 0.026525 -0.12085
C_ C_ 0.583221 0.850577 0.0272709 -0.12085
C_ C_ 0.822335 0.599979 0.0216109 -0.12085
C_ C_ 0.827723 0.855274 0.028194 -0.12085
C_ C_ 0.568553 0.555592 0.452792 0.6956
C_ C_ 0.560669 0.803611 0.448167 0.6956
C_ C_ 0.820239 0.554503 0.448112 0.6956
C_ C_ 0.816389 0.806955 0.448369 0.6956
C_ C_ 0.55627 0.567365 0.496325 -0.16651
C_ C_ 0.550379 0.813573 0.492757 -0.16651
C_ C_ 0.811947 0.567266 0.492231 -0.16651
C_ C_ 0.805164 0.817613 0.492366 -0.16651
C_ C_ 0.751363 0.555931 0.0428146 -0.12085
C_ C_ 0.754315 0.812321 0.0465988 -0.12085
C_ C_ 0.00804135 0.553908 0.0449441 -0.12085
C_ C_ 0.00168636 0.806881 0.0404203 -0.12085
C_ C_ 0.560223 0.611667 0.0668081 0.16698
C_ C_ 0.56875 0.858482 0.0666208 0.16698
C_ C_ 0.814493 0.606823 0.0636707 0.16698
C_ C_ 0.815549 0.8643 0.0671669 0.16698
C_ C_ 0.562194 0.627772 0.135378 0.36401
C_ C_ 0.563775 0.872343 0.132258 0.36401
C_ C_ 0.812677 0.623409 0.131257 0.36401
C_ C_ 0.81603 0.875671 0.134417 0.36401
C_ C_ 0.525972 0.588245 0.0776196 0.16698
C_ C_ 0.531946 0.837255 0.0723166 0.16698
C_ C_ 0.777661 0.587991 0.0716324 0.16698
C_ C_ 0.778443 0.843077 0.0758533 0.16698
C_ C_ 0.517832 0.545374 0.506579 -0.12085
C_ C_ 0.512711 0.794729 0.503739 -0.12085
C_ C_ 0.773136 0.548005 0.502873 -0.12085
C_ C_ 0.770122 0.797146 0.503545 -0.12085
C_ C_ 0.574394 0.642427 0.182434 0.15351
C_ C_ 0.573678 0.890243 0.179546 0.15351
C_ C_ 0.824861 0.638193 0.179985 0.15351
C_ C_ 0.833842 0.884943 0.179805 0.15351
C_ C_ 0.583249 0.68119 0.198019 -0.35079
C_ C_ 0.585331 0.928015 0.191106 -0.35079
C_ C_ 0.838936 0.676733 0.20118 -0.35079
C_ C_ 0.854886 0.923147 0.208342 -0.35079
C_ C_ 0.50345 0.591244 0.281376 -0.12085
C_ C_ 0.510464 0.847007 0.282994 -0.12085
C_ C_ 0.757214 0.592562 0.277536 -0.12085
C_ C_ 0.761853 0.846528 0.280294 -0.12085
C_ C_ 0.732262 0.550915 0.202138 0.6956
C_ C_ 0.738508 0.804118 0.203294 0.6956
C_ C_ 0.981248 0.549794 0.202893 0.6956
C_ C_ 0.987499 0.802059 0.200808 0.6956
C_ C_ 0.499557 0.560532 0.249166 -0.16651
C_ C_ 0.5056 0.814582 0.248894 -0.16651
C_ C_ 0.751616 0.560754 0.246161 -0.16651
C_ C_ 0.756692 0.815685 0.248668 -0.16651
C_ C_ 0.531576 0.547996 0.300538 -0.12085
C_ C_ 0.546992 0.806236 0.299888 -0.12085
C_ C_ 0.792776 0.554063 0.297099 -0.12085
C_ C_ 0.794631 0.807136 0.301819 -0.12085
C_ C_ 0.524816 0.601248 0.32166 0.16698
C_ C_ 0.534073 0.857042 0.323428 0.16698
C_ C_ 0.774236 0.600866 0.319973 0.16698
C_ C_ 0.781387 0.85614 0.322148 0.16698
C_ C_ 0.564249 0.626108 0.379087 0.36401
C_ C_ 0.568665 0.881049 0.38358 0.36401
C_ C_ 0.815929 0.630918 0.375522 0.36401
C_ C_ 0.820443 0.883142 0.380086 0.36401
C_ C_ 0.53818 0.579843 0.331114 0.16698
C_ C_ 0.550324 0.836162 0.33055 0.16698
C_ C_ 0.792387 0.581744 0.329084 0.16698
C_ C_ 0.797712 0.835886 0.331785 0.16698
C_ C_ 0.512776 0.539287 0.261222 -0.12085
C_ C_ 0.521573 0.793511 0.260042 -0.12085
C_ C_ 0.773771 0.544303 0.255629 -0.12085
C_ C_ 0.772875 0.79593 0.260843 -0.12085
C_ C_ 0.587107 0.65183 0.422116 0.15351
C_ C_ 0.590799 0.908705 0.424169 0.15351
C_ C_ 0.839457 0.659618 0.416304 0.15351
C_ C_ 0.848262 0.913655 0.415128 0.15351
C_ C_ 0.623813 0.68297 0.417629 -0.35079
C_ C_ 0.6299 0.939341 0.423883 -0.35079
C_ C_ 0.877823 0.687854 0.410875 -0.35079
C_ C_ 0.882735 0.937711 0.397634 -0.35079
C_ C_ 0.674258 0.650171 0.478613 -0.12085
C_ C_ 0.672347 0.902 0.475102 -0.12085
C_ C_ 0.920407 0.650163 0.472881 -0.12085
C_ C_ 0.923783 0.903927 0.476327 -0.12085
C_ C_ 0.678213 0.694749 0.0493871 0.6956
C_ C_ 0.679519 0.947512 0.052763 0.6956
C_ C_ 0.93813 0.693513 0.0511245 0.6956
C_ C_ 0.939434 0.947854 0.0527271 0.6956
C_ C_ 0.687431 0.683099 0.00451255 -0.16651
C_ C_ 0.688932 0.936614 0.00704088 -0.16651
C_ C_ 0.949916 0.683394 0.00858497 -0.16651
C_ C_ 0.948791 0.937934 0.00810171 -0.16651
C_ C_ 0.495982 0.690145 0.456019 -0.12085
C_ C_ 0.497824 0.947178 0.457836 -0.12085
C_ C_ 0.745804 0.690007 0.455759 -0.12085
C_ C_ 0.746331 0.942914 0.455868 -0.12085
C_ C_ 0.685573 0.637428 0.437128 0.16698
C_ C_ 0.685372 0.892029 0.437214 0.16698
C_ C_ 0.93473 0.641198 0.433337 0.16698
C_ C_ 0.934999 0.892458 0.435842 0.16698
C_ C_ 0.682572 0.624379 0.368274 0.36401
C_ C_ 0.688478 0.876579 0.36898 0.36401
C_ C_ 0.937999 0.629162 0.366467 0.36401
C_ C_ 0.93969 0.87439 0.370557 0.36401
C_ C_ 0.722063 0.65852 0.427494 0.16698
C_ C_ 0.721108 0.912557 0.42744 0.16698
C_ C_ 0.972806 0.662488 0.42649 0.16698
C_ C_ 0.971444 0.914843 0.427173 0.16698
C_ C_ 0.722094 0.707109 0.992435 -0.12085
C_ C_ 0.725614 0.958053 0.996955 -0.12085
C_ C_ 0.98428 0.70755 0.997018 -0.12085
C_ C_ 0.984664 0.959069 0.996292 -0.12085
C_ C_ 0.665866 0.614331 0.320674 0.15351
C_ C_ 0.67757 0.863111 0.321152 0.15351
C_ C_ 0.922532 0.615287 0.318281 0.15351
C_ C_ 0.925155 0.859521 0.323289 0.15351
C_ C_ 0.650298 0.578016 0.295835 -0.35079
C_ C_ 0.668803 0.826263 0.304418 -0.35079
C_ C_ 0.911966 0.578774 0.292084 -0.35079
C_ C_ 0.915706 0.822314 0.304807 -0.35079
N_ N_ 0.704571 0.61502 0.148165 -0.51457
N_ N_ 0.708319 0.866468 0.154679 -0.51457
N_ N_ 0.956653 0.613614 0.146695 -0.51457
N_ N_ 0.959195 0.866952 0.146353 -0.51457
N_ N_ 0.676539 0.65103 0.137327 -0.51457
N_ N_ 0.676297 0.897341 0.139098 -0.51457
N_ N_ 0.930312 0.647912 0.130496 -0.51457
N_ N_ 0.932576 0.902764 0.133904 -0.51457
N_ N_ 0.584958 0.637388 0.104992 -0.51457
N_ N_ 0.589869 0.880963 0.104391 -0.51457
N_ N_ 0.837231 0.631475 0.0998199 -0.51457
N_ N_ 0.838736 0.886558 0.104249 -0.51457
N_ N_ 0.526697 0.597671 0.118689 -0.51457
N_ N_ 0.527768 0.845548 0.113712 -0.51457
N_ N_ 0.775666 0.596692 0.113785 -0.51457
N_ N_ 0.778593 0.850234 0.118173 -0.51457
N_ N_ 0.540403 0.631707 0.35377 -0.51457
N_ N_ 0.543785 0.885936 0.356409 -0.51457
N_ N_ 0.79015 0.633252 0.349244 -0.51457
N_ N_ 0.793771 0.886525 0.354104 -0.51457
N_ N_ 0.564983 0.594494 0.365512 -0.51457
N_ N_ 0.572894 0.851346 0.368858 -0.51457
N_ N_ 0.820058 0.600609 0.363015 -0.51457
N_ N_ 0.821916 0.85206 0.369435 -0.51457
N_ N_ 0.660038 0.615304 0.399815 -0.51457
N_ N_ 0.662491 0.867949 0.399706 -0.51457
N_ N_ 0.912044 0.619005 0.394377 -0.51457
N_ N_ 0.913183 0.866544 0.399537 -0.51457
N_ N_ 0.721983 0.649556 0.384431 -0.51457
N_ N_ 0.724064 0.904503 0.386436 -0.51457
N_ N_ 0.973436 0.657188 0.385086 -0.51457
N_ N_ 0.976111 0.903099 0.385783 -0.51457
O_ O_ 0.522 0.728315 0.324288 -0.61362
O_ O_ 0.5253 0.979799 0.322016 -0.61362
O_ O_ 0.773389 0.727908 0.324131 -0.61362
O_ O_ 0.77306 0.982512 0.324387 -0.61362
O_ O_ 0.554147 0.717207 0.382148 -0.98607
O_ O_ 0.55744 0.970571 0.382641 -0.98607
O_ O_ 0.802917 0.715183 0.380415 -0.98607
O_ O_ 0.804604 0.967926 0.381963 -0.98607
O_ O_ 0.523179 0.676264 0.31456 -0.61362
O_ O_ 0.519453 0.925319 0.311181 -0.61362
O_ O_ 0.777706 0.676467 0.310171 -0.61362
O_ O_ 0.772766 0.929919 0.312449 -0.61362
O_ O_ 0.677907 0.580586 0.0580093 -0.55956
O_ O_ 0.673785 0.820442 0.069442 -0.55956
O_ O_ 0.915625 0.56814 0.0604049 -0.55956
O_ O_ 0.933014 0.832723 0.0545532 -0.55956
O_ O_ 0.545646 0.52311 0.427926 -0.61362
O_ O_ 0.535905 0.774058 0.418967 -0.61362
O_ O_ 0.795126 0.524792 0.421537 -0.61362
O_ O_ 0.793906 0.777622 0.420683 -0.61362
O_ O_ 0.593847 0.534102 0.365663 -0.98607
O_ O_ 0.592796 0.786901 0.375003 -0.98607
O_ O_ 0.848469 0.538616 0.368604 -0.98607
O_ O_ 0.845359 0.785613 0.367275 -0.98607
O_ O_ 0.594954 0.578505 0.439362 -0.61362
O_ O_ 0.593748 0.826937 0.439535 -0.61362
O_ O_ 0.847075 0.578722 0.435366 -0.61362
O_ O_ 0.846308 0.830649 0.43817 -0.61362
O_ O_ 0.603636 0.638273 0.195214 -0.55956
O_ O_ 0.602854 0.889846 0.197666 -0.55956
O_ O_ 0.853477 0.631352 0.18937 -0.55956
O_ O_ 0.857941 0.872943 0.18566 -0.55956
O_ O_ 0.727768 0.522088 0.174196 -0.61362
O_ O_ 0.728305 0.77178 0.178154 -0.61362
O_ O_ 0.975872 0.519279 0.177057 -0.61362
O_ O_ 0.981845 0.771985 0.173263 -0.61362
O_ O_ 0.687835 0.530712 0.117644 -0.98607
O_ O_ 0.693192 0.784341 0.119807 -0.98607
O_ O_ 0.942067 0.529995 0.11261 -0.98607
O_ O_ 0.94433 0.781863 0.113278 -0.98607
O_ O_ 0.729784 0.575311 0.188911 -0.61362
O_ O_ 0.729117 0.825303 0.19122 -0.61362
O_ O_ 0.978768 0.572989 0.18956 -0.61362
O_ O_ 0.9828 0.824953 0.187436 -0.61362
O_ O_ 0.56361 0.661681 0.445105 -0.55956
O_ O_ 0.568047 0.919855 0.441705 -0.55956
O_ O_ 0.818359 0.675005 0.434435 -0.55956
O_ O_ 0.83053 0.928173 0.437748 -0.55956
O_ O_ 0.700293 0.726026 0.0742066 -0.61362
O_ O_ 0.70407 0.976788 0.0783231 -0.61362
O_ O_ 0.961551 0.724232 0.0790574 -0.61362
O_ O_ 0.961177 0.976712 0.0808102 -0.61362
O_ O_ 0.654724 0.71469 0.124006 -0.98607
O_ O_ 0.653086 0.964514 0.131976 -0.98607
O_ O_ 0.908519 0.713248 0.131615 -0.98607
O_ O_ 0.904598 0.966128 0.127283 -0.98607
O_ O_ 0.657556 0.670604 0.0662305 -0.61362
O_ O_ 0.653586 0.924178 0.0670209 -0.61362
O_ O_ 0.902933 0.675076 0.0599463 -0.61362
O_ O_ 0.912132 0.924711 0.0651004 -0.61362
O_ O_ 0.640721 0.626409 0.318564 -0.55956
O_ O_ 0.647248 0.866911 0.31 -0.55956
O_ O_ 0.894507 0.622486 0.312047 -0.55956
O_ O_ 0.895787 0.865065 0.312228 -0.55956
Zn Zn 0.521923 0.670594 0.860655 0.91541
Zn Zn 0.520812 0.925063 0.865999 0.91541
Zn Zn 0.770731 0.673874 0.865941 0.91541
Zn Zn 0.77159 0.923679 0.866017 0.91541
Zn Zn 0.59951 0.578013 0.88753 0.91541
Zn Zn 0.602348 0.832259 0.884386 0.91541
Zn Zn 0.851131 0.580082 0.887594 0.91541
Zn Zn 0.853833 0.833683 0.890417 0.91541
Zn Zn 0.727903 0.578145 0.635163 0.91541
Zn Zn 0.726845 0.827347 0.637801 0.91541
Zn Zn 0.981169 0.576687 0.638086 0.91541
Zn Zn 0.975502 0.827004 0.635556 0.91541
Zn Zn 0.648836 0.669613 0.618824 0.91541
Zn Zn 0.645574 0.918402 0.611922 0.91541
Zn Zn 0.898093 0.671247 0.614027 0.91541
Zn Zn 0.89369 0.920643 0.612939 0.91541
Zn Zn 0.553094 0.500248 0.879302 1.11764
Zn Zn 0.550685 0.749693 0.87405 1.11764
Zn Zn 0.804518 0.50212 0.876142 1.11764
Zn Zn 0.801357 0.755577 0.880443 1.11764
Zn Zn 0.699889 -0.0006549999999999612 0.625342 1.11764
Zn Zn 0.699649 0.747362 0.627269 1.11764
Zn Zn 0.941857 0.996241 0.622073 1.11764
Zn Zn 0.950086 0.748708 0.625744 1.11764
H_ H_ 0.760499 0.644966 0.725659 0.1146
H_ H_ 0.74415 0.88816 0.732599 0.1146
H_ H_ 0.000564106 0.634976 0.724676 0.1146
H_ H_ 0.00533882 0.890449 0.72302 0.1146
H_ H_ 0.684964 0.707923 0.699737 0.1146
H_ H_ 0.704086 0.966591 0.690879 0.1146
H_ H_ 0.941008 0.704686 0.695639 0.1146
H_ H_ 0.932688 0.955234 0.700362 0.1146
H_ H_ 0.719924 0.725292 0.771178 0.1146
H_ H_ 0.737829 0.985647 0.760492 0.1146
H_ H_ 0.979491 0.725796 0.764656 0.1146
H_ H_ 0.97278 0.975368 0.768799 0.1146
H_ H_ 0.679631 0.561702 0.541386 0.42917
H_ H_ 0.702833 0.826486 0.5401 0.42917
H_ H_ 0.962967 0.591929 0.540687 0.42917
H_ H_ 0.948892 0.827686 0.549259 0.42917
H_ H_ 0.650391 0.60375 0.563114 0.1146
H_ H_ 0.666302 0.861275 0.550698 0.1146
H_ H_ 0.906467 0.606033 0.556268 0.1146
H_ H_ 0.899648 0.85536 0.559366 0.1146
H_ H_ 0.601324 0.573128 0.606818 0.1146
H_ H_ 0.609225 0.806088 0.541944 0.1146
H_ H_ 0.887228 0.552247 0.597003 0.1146
H_ H_ 0.84681 0.821537 0.599192 0.1146
H_ H_ 0.605608 0.542267 0.559161 0.1146
H_ H_ 0.630465 0.801315 0.589881 0.1146
H_ H_ 0.857239 0.570491 0.581818 0.1146
H_ H_ 0.85839 0.790315 0.55668 0.1146
H_ H_ 0.629966 0.549589 0.615489 0.1146
H_ H_ 0.607653 0.828346 0.598946 0.1146
H_ H_ 0.866704 0.541452 0.543903 0.1146
H_ H_ 0.877338 0.802133 0.610931 0.1146
H_ H_ 0.57024 0.723092 0.904106 0.42917
H_ H_ 0.581484 0.972838 0.891853 0.42917
H_ H_ 0.819521 0.723167 0.904456 0.42917
H_ H_ 0.82037 0.97298 0.90747 0.42917
H_ H_ 0.610243 0.612431 0.526193 0.1146
H_ H_ 0.603447 0.861681 0.514146 0.1146
H_ H_ 0.864539 0.613279 0.518998 0.1146
H_ H_ 0.850349 0.867781 0.512957 0.1146
H_ H_ 0.731776 0.540639 0.548944 0.1146
H_ H_ 0.734834 0.787913 0.553051 0.1146
H_ H_ 0.979888 0.53391 0.552015 0.1146
H_ H_ 0.981474 0.786155 0.552699 0.1146
H_ H_ 0.747072 0.517365 0.980308 0.1146
H_ H_ 0.746993 0.777988 0.98223 0.1146
H_ H_ -0.00518799999999997 0.523471 0.978512 0.1146
H_ H_ 0.992639 0.771618 0.97603 0.1146
H_ H_ 0.615452 0.614405 0.678778 0.42917
H_ H_ 0.611284 0.861525 0.679846 0.42917
H_ H_ 0.872457 0.631601 0.70546 0.42917
H_ H_ 0.866881 0.90938 0.718277 0.42917
H_ H_ 0.551793 0.62514 0.699201 0.1146
H_ H_ 0.550602 0.872801 0.691484 0.1146
H_ H_ 0.804811 0.629196 0.695151 0.1146
H_ H_ 0.795736 0.883347 0.693951 0.1146
H_ H_ 0.618527 0.690989 0.693492 0.1146
H_ H_ 0.570736 0.937144 0.698055 0.1146
H_ H_ 0.825283 0.689592 0.669855 0.1146
H_ H_ 0.84806 0.951752 0.678869 0.1146
H_ H_ 0.570143 0.685188 0.698055 0.1146
H_ H_ 0.60362 0.931967 0.734654 0.1146
H_ H_ 0.830591 0.691436 0.723204 0.1146
H_ H_ 0.792086 0.930031 0.664641 0.1146
H_ H_ 0.598244 0.680946 0.738849 0.1146
H_ H_ 0.620173 0.939052 0.688847 0.1146
H_ H_ 0.872352 0.69362 0.700603 0.1146
H_ H_ 0.818976 0.943017 0.722179 0.1146
H_ H_ 0.61225 0.533139 0.882989 0.42917
H_ H_ 0.610265 0.781818 0.864044 0.42917
H_ H_ 0.858871 0.532223 0.854814 0.42917
H_ H_ 0.860103 0.784044 0.861344 0.42917
H_ H_ 0.493989 0.607151 0.77137 0.1146
H_ H_ 0.497184 0.859798 0.768219 0.1146
H_ H_ 0.747316 0.611787 0.76766 0.1146
H_ H_ 0.769998 0.868524 0.767528 0.1146
H_ H_ 0.554914 0.537325 0.813214 0.1146
H_ H_ 0.560106 0.794139 0.806484 0.1146
H_ H_ 0.795815 0.536502 0.809168 0.1146
H_ H_ 0.805506 0.789536 0.811768 0.1146
H_ H_ 0.524374 0.518895 0.739705 0.1146
H_ H_ 0.524458 0.772483 0.738321 0.1146
H_ H_ 0.773593 0.524622 0.73688 0.1146
H_ H_ 0.775903 0.773042 0.737099 0.1146
H_ H_ 0.566201 0.683334 0.967409 0.42917
H_ H_ 0.557392 0.936939 0.954836 0.42917
H_ H_ 0.789488 0.659845 0.956355 0.42917
H_ H_ 0.811031 0.933072 0.967089 0.42917
H_ H_ 0.603228 0.649145 0.937722 0.1146
H_ H_ 0.596963 0.902475 0.938295 0.1146
H_ H_ 0.840182 0.641206 0.945549 0.1146
H_ H_ 0.84361 0.897014 0.947041 0.1146
H_ H_ 0.645351 0.70611 0.939344 0.1146
H_ H_ 0.645187 0.957544 0.928674 0.1146
H_ H_ 0.865094 0.706064 0.921985 0.1146
H_ H_ 0.887843 0.956628 0.946311 0.1146
H_ H_ 0.616976 0.698667 0.888668 0.1146
H_ H_ 0.622602 0.944518 0.875624 0.1146
H_ H_ 0.885754 0.681445 0.896457 0.1146
H_ H_ 0.866614 0.946641 0.892932 0.1146
H_ H_ 0.648363 0.677973 0.893616 0.1146
H_ H_ 0.641896 0.919297 0.886921 0.1146
H_ H_ 0.889066 0.694687 0.955998 0.1146
H_ H_ 0.895477 0.92735 0.903356 0.1146
H_ H_ 0.677024 0.526749 0.595742 0.42917
H_ H_ 0.67932 0.777208 0.598115 0.42917
H_ H_ 0.930869 0.52738 0.600475 0.42917
H_ H_ 0.921141 0.777626 0.606453 0.42917
H_ H_ 0.642293 0.630125 0.980455 0.1146
H_ H_ 0.63193 0.890562 0.976413 0.1146
H_ H_ 0.900304 0.632225 0.987013 0.1146
H_ H_ 0.895744 0.891741 0.983185 0.1146
H_ H_ 0.517473 0.710885 0.946809 0.1146
H_ H_ 0.510383 0.964643 0.945479 0.1146
H_ H_ 0.756456 0.71265 0.939946 0.1146
H_ H_ 0.75712 0.969504 0.947384 0.1146
H_ H_ 0.503431 0.725556 0.520126 0.1146
H_ H_ 0.507952 0.979065 0.525432 0.1146
H_ H_ 0.757832 0.726834 0.517394 0.1146
H_ H_ 0.753365 0.977167 0.519951 0.1146
H_ H_ 0.621479 0.612932 0.794473 0.42917
H_ H_ 0.635305 0.876321 0.797829 0.42917
H_ H_ 0.880257 0.629039 0.81552 0.42917
H_ H_ 0.877525 0.869311 0.816273 0.42917
H_ H_ 0.694214 0.621772 0.806112 0.1146
H_ H_ 0.698579 0.872023 0.806829 0.1146
H_ H_ 0.946001 0.624812 0.807962 0.1146
H_ H_ 0.948698 0.870809 0.806673 0.1146
H_ H_ 0.682791 0.567619 0.8025 0.1146
H_ H_ 0.637679 0.805664 0.820144 0.1146
H_ H_ 0.930571 0.565792 0.820218 0.1146
H_ H_ 0.925605 0.815391 0.842401 0.1146
H_ H_ 0.645835 0.563166 0.762881 0.1146
H_ H_ 0.685958 0.814479 0.811365 0.1146
H_ H_ 0.915885 0.565878 0.768814 0.1146
H_ H_ 0.93115 0.807462 0.78494 0.1146
H_ H_ 0.63236 0.554849 0.812855 0.1146
H_ H_ 0.657241 0.81094 0.770851 0.1146
H_ H_ 0.877144 0.555621 0.79869 0.1146
H_ H_ 0.886332 0.803151 0.804753 0.1146
H_ H_ 0.637387 0.720862 0.632619 0.42917
H_ H_ 0.644183 0.97122 0.644028 0.42917
H_ H_ 0.890726 0.720823 0.636441 0.42917
H_ H_ 0.876918 0.965506 0.620062 0.42917
C_ C_ 0.738816 0.655585 0.724015 -0.12085
C_ C_ 0.734699 0.904315 0.725018 -0.12085
C_ C_ 0.9877 0.649627 0.721332 -0.12085
C_ C_ 0.99062 0.905204 0.719898 -0.12085
C_ C_ 0.509454 0.694126 0.799229 0.6956
C_ C_ 0.512038 0.950493 0.800532 0.6956
C_ C_ 0.761943 0.697862 0.802696 0.6956
C_ C_ 0.758776 0.948185 0.7993 0.6956
C_ C_ 0.741191 0.686161 0.757009 -0.16651
C_ C_ 0.741735 0.937111 0.754144 -0.16651
C_ C_ 0.989892 0.679859 0.75497 -0.16651
C_ C_ 0.991875 0.933667 0.752327 -0.16651
C_ C_ 0.702892 0.695132 0.704788 -0.12085
C_ C_ 0.709375 0.948566 0.699957 -0.12085
C_ C_ 0.952978 0.689657 0.703257 -0.12085
C_ C_ 0.950919 0.944138 0.70364 -0.12085
C_ C_ 0.720132 0.646304 0.681484 0.16698
C_ C_ 0.715574 0.894531 0.683545 0.16698
C_ C_ 0.962979 0.638975 0.680915 0.16698
C_ C_ 0.965908 0.89477 0.681418 0.16698
C_ C_ 0.68346 0.61946 0.624843 0.36401
C_ C_ 0.686695 0.871811 0.617048 0.36401
C_ C_ 0.933379 0.617651 0.619221 0.36401
C_ C_ 0.930853 0.869017 0.620673 0.36401
C_ C_ 0.704084 0.666844 0.673357 0.16698
C_ C_ 0.702001 0.916194 0.672085 0.16698
C_ C_ 0.944334 0.658165 0.674521 0.16698
C_ C_ 0.948792 0.915306 0.672959 0.16698
C_ C_ 0.721063 0.704238 0.74604 -0.12085
C_ C_ 0.731723 0.959953 0.739818 -0.12085
C_ C_ 0.973107 0.700549 0.744061 -0.12085
C_ C_ 0.973195 0.953885 0.743374 -0.12085
C_ C_ 0.65818 0.590643 0.584405 0.15351
C_ C_ 0.666632 0.847039 0.57393 0.15351
C_ C_ 0.917163 0.592875 0.574032 0.15351
C_ C_ 0.907148 0.840455 0.57949 0.15351
C_ C_ 0.62145 0.561199 0.591334 -0.35079
C_ C_ 0.625577 0.81882 0.575596 -0.35079
C_ C_ 0.880887 0.562616 0.573596 -0.35079
C_ C_ 0.869059 0.81235 0.586818 -0.35079
C_ C_ 0.580645 0.597018 0.529213 -0.12085
C_ C_ 0.575633 0.846003 0.523224 -0.12085
C_ C_ 0.834984 0.598883 0.524426 -0.12085
C_ C_ 0.83091 0.84941 0.525028 -0.12085
C_ C_ 0.558908 0.553911 0.952471 0.6956
C_ C_ 0.567773 0.808589 0.949259 0.6956
C_ C_ 0.810773 0.55578 0.948238 0.6956
C_ C_ 0.810515 0.812063 0.949743 0.6956
C_ C_ 0.548082 0.567639 0.996042 -0.16651
C_ C_ 0.558799 0.818502 0.993295 -0.16651
C_ C_ 0.799423 0.56602 0.992468 -0.16651
C_ C_ 0.801516 0.824454 0.994221 -0.16651
C_ C_ 0.760232 0.557954 0.542592 -0.12085
C_ C_ 0.75932 0.8057 0.544215 -0.12085
C_ C_ 1.0073163 0.551006 0.543248 -0.12085
C_ C_ 0.00282747 0.805789 0.541733 -0.12085
C_ C_ 0.567589 0.607712 0.56841 0.16698
C_ C_ 0.562442 0.858021 0.563277 0.16698
C_ C_ 0.820141 0.609227 0.56484 0.16698
C_ C_ 0.818988 0.857422 0.565811 0.16698
C_ C_ 0.565109 0.624661 0.635792 0.36401
C_ C_ 0.561102 0.876451 0.629433 0.36401
C_ C_ 0.815814 0.627248 0.632122 0.36401
C_ C_ 0.812617 0.876464 0.631577 0.36401
C_ C_ 0.530841 0.586875 0.575696 0.16698
C_ C_ 0.5262 0.838687 0.570926 0.16698
C_ C_ 0.783532 0.589272 0.57253 0.16698
C_ C_ 0.783138 0.836009 0.57351 0.16698
C_ C_ 0.513861 0.543556 0.0086755 -0.12085
C_ C_ 0.521312 0.796948 1.00183447 -0.12085
C_ C_ 0.762883 0.543811 0.00261702 -0.12085
C_ C_ 0.764651 0.803371 0.00505641 -0.12085
C_ C_ 0.577791 0.636609 0.68235 0.15351
C_ C_ 0.576217 0.886991 0.677289 0.15351
C_ C_ 0.829589 0.642955 0.679594 0.15351
C_ C_ 0.819191 0.898016 0.677768 0.15351
C_ C_ 0.590478 0.674466 0.70456 -0.35079
C_ C_ 0.592229 0.925987 0.700554 -0.35079
C_ C_ 0.840499 0.681623 0.693871 -0.35079
C_ C_ 0.820295 0.933642 0.6862 -0.35079
C_ C_ 0.505559 0.591207 0.780865 -0.12085
C_ C_ 0.507909 0.844192 0.775865 -0.12085
C_ C_ 0.760746 0.597374 0.778146 -0.12085
C_ C_ 0.770553 0.849223 0.77676 -0.12085
C_ C_ 0.74105 0.557029 0.701723 0.6956
C_ C_ 0.745109 0.804617 0.700907 0.6956
C_ C_ 0.989578 0.553445 0.70156 0.6956
C_ C_ 0.990646 0.804482 0.701813 0.6956
C_ C_ 0.504589 0.560911 0.749053 -0.16651
C_ C_ 0.506721 0.814038 0.743667 -0.16651
C_ C_ 0.756687 0.565734 0.746459 -0.16651
C_ C_ 0.764079 0.817167 0.746384 -0.16651
C_ C_ 0.542097 0.553514 0.803517 -0.12085
C_ C_ 0.547536 0.808695 0.798563 -0.12085
C_ C_ 0.792832 0.556216 0.799812 -0.12085
C_ C_ 0.797083 0.806869 0.801364 -0.12085
C_ C_ 0.527115 0.603016 0.821431 0.16698
C_ C_ 0.525363 0.853623 0.818712 0.16698
C_ C_ 0.778308 0.606075 0.820482 0.16698
C_ C_ 0.781389 0.854717 0.819778 0.16698
C_ C_ 0.563681 0.629871 0.881145 0.36401
C_ C_ 0.561725 0.880746 0.877873 0.36401
C_ C_ 0.815016 0.631818 0.880747 0.36401
C_ C_ 0.814815 0.88077 0.882058 0.36401
C_ C_ 0.540027 0.581268 0.833016 0.16698
C_ C_ 0.543932 0.835055 0.829238 0.16698
C_ C_ 0.791854 0.583721 0.829886 0.16698
C_ C_ 0.792963 0.833246 0.832821 0.16698
C_ C_ 0.523804 0.541564 0.761204 -0.12085
C_ C_ 0.525737 0.795921 0.756672 -0.12085
C_ C_ 0.771645 0.545535 0.758847 -0.12085
C_ C_ 0.776331 0.795659 0.760361 -0.12085
C_ C_ 0.590903 0.660166 0.919786 0.15351
C_ C_ 0.588374 0.912419 0.913601 0.15351
C_ C_ 0.832103 0.655686 0.925029 0.15351
C_ C_ 0.837939 0.909026 0.923804 0.15351
C_ C_ 0.627543 0.687762 0.909517 -0.35079
C_ C_ 0.626581 0.935388 0.901664 -0.35079
C_ C_ 0.86873 0.684659 0.925388 -0.35079
C_ C_ 0.875373 0.936933 0.916676 -0.35079
C_ C_ 0.669939 0.647854 0.975647 -0.12085
C_ C_ 0.663455 0.905539 0.97252 -0.12085
C_ C_ 0.923611 0.651981 0.976897 -0.12085
C_ C_ 0.923761 0.90706 0.976414 -0.12085
C_ C_ 0.692097 0.692848 0.554187 0.6956
C_ C_ 0.686747 0.944564 0.551007 0.6956
C_ C_ 0.933373 0.692263 0.546918 0.6956
C_ C_ 0.935384 0.945043 0.549559 0.6956
C_ C_ 0.700929 0.681145 0.509307 -0.16651
C_ C_ 0.698561 0.932502 0.50803 -0.16651
C_ C_ 0.94678 0.682163 0.505658 -0.16651
C_ C_ 0.94883 0.934659 0.507559 -0.16651
C_ C_ 0.491001 0.693968 0.956828 -0.12085
C_ C_ 0.491779 0.943076 0.956501 -0.12085
C_ C_ 0.73459 0.695526 0.952961 -0.12085
C_ C_ 0.73581 0.949565 0.956171 -0.12085
C_ C_ 0.681306 0.63866 0.935864 0.16698
C_ C_ 0.679072 0.893986 0.935865 0.16698
C_ C_ 0.93261 0.643344 0.935014 0.16698
C_ C_ 0.934477 0.896565 0.935618 0.16698
C_ C_ 0.683495 0.622017 0.868703 0.36401
C_ C_ 0.68359 0.877315 0.869227 0.36401
C_ C_ 0.93546 0.626129 0.867732 0.36401
C_ C_ 0.936944 0.876759 0.869725 0.36401
C_ C_ 0.715673 0.662797 0.927824 0.16698
C_ C_ 0.715296 0.916003 0.92913 0.16698
C_ C_ 0.96727 0.667155 0.924759 0.16698
C_ C_ 0.970561 0.916253 0.9271 0.16698
C_ C_ 0.736069 0.701369 0.497067 -0.12085
C_ C_ 0.735625 0.952558 0.497104 -0.12085
C_ C_ 0.986631 0.70114 0.498974 -0.12085
C_ C_ 0.981365 0.956644 0.49403 -0.12085
C_ C_ 0.668906 0.607929 0.821305 0.15351
C_ C_ 0.671963 0.859732 0.821365 0.15351
C_ C_ 0.920812 0.610382 0.820547 0.15351
C_ C_ 0.923482 0.857603 0.822505 0.15351
C_ C_ 0.656738 0.571664 0.79835 -0.35079
C_ C_ 0.662649 0.820901 0.805896 -0.35079
C_ C_ 0.911019 0.571491 0.800646 -0.35079
C_ C_ 0.919146 0.819932 0.813058 -0.35079
N_ N_ 0.707444 0.615382 0.651094 -0.51457
N_ N_ 0.70804 0.866366 0.647161 -0.51457
N_ N_ 0.957517 0.613208 0.64574 -0.51457
N_ N_ 0.955211 0.864595 0.648054 -0.51457
N_ N_ 0.67869 0.649429 0.637972 -0.51457
N_ N_ 0.682563 0.901618 0.631427 -0.51457
N_ N_ 0.929377 0.648232 0.633072 -0.51457
N_ N_ 0.925877 0.899134 0.635493 -0.51457
N_ N_ 0.590898 0.631841 0.606323 -0.51457
N_ N_ 0.586381 0.883076 0.599564 -0.51457
N_ N_ 0.841108 0.634361 0.602503 -0.51457
N_ N_ 0.83734 0.884649 0.600579 -0.51457
N_ N_ 0.528258 0.597908 0.618259 -0.51457
N_ N_ 0.523566 0.848844 0.612155 -0.51457
N_ N_ 0.779084 0.600483 0.614271 -0.51457
N_ N_ 0.779205 0.846883 0.61545 -0.51457
N_ N_ 0.542585 0.634704 0.850876 -0.51457
N_ N_ 0.537652 0.884331 0.85019 -0.51457
N_ N_ 0.792228 0.636634 0.851644 -0.51457
N_ N_ 0.792191 0.885166 0.851256 -0.51457
N_ N_ 0.563385 0.597503 0.871654 -0.51457
N_ N_ 0.566868 0.851266 0.867164 -0.51457
N_ N_ 0.81723 0.600121 0.866633 -0.51457
N_ N_ 0.816116 0.849271 0.870022 -0.51457
N_ N_ 0.658309 0.614171 0.89971 -0.51457
N_ N_ 0.65845 0.869231 0.898399 -0.51457
N_ N_ 0.90957 0.617597 0.898313 -0.51457
N_ N_ 0.911115 0.871429 0.898709 -0.51457
N_ N_ 0.720728 0.65171 0.88646 -0.51457
N_ N_ 0.720253 0.905819 0.887998 -0.51457
N_ N_ 0.971176 0.655746 0.883753 -0.51457
N_ N_ 0.973563 0.904858 0.884435 -0.51457
O_ O_ 0.512254 0.722663 0.82673 -0.61362
O_ O_ 0.520396 0.980217 0.827373 -0.61362
O_ O_ 0.774276 0.73054 0.826665 -0.61362
O_ O_ 0.771094 0.979963 0.822394 -0.61362
O_ O_ 0.552021 0.715629 0.882058 -0.98607
O_ O_ 0.558069 0.968547 0.88145 -0.98607
O_ O_ 0.800293 0.718736 0.886801 -0.98607
O_ O_ 0.802687 0.967214 0.886853 -0.98607
O_ O_ 0.522078 0.674452 0.810236 -0.61362
O_ O_ 0.510645 0.926478 0.816178 -0.61362
O_ O_ 0.76784 0.675998 0.816207 -0.61362
O_ O_ 0.7689 0.928027 0.812484 -0.61362
O_ O_ 0.677474 0.576983 0.562851 -0.55956
O_ O_ 0.686373 0.829767 0.557822 -0.55956
O_ O_ 0.943487 0.583679 0.553718 -0.55956
O_ O_ 0.9269 0.826169 0.557719 -0.55956
O_ O_ 0.539536 0.522601 0.928376 -0.61362
O_ O_ 0.546366 0.777454 0.922056 -0.61362
O_ O_ 0.794534 0.523422 0.924443 -0.61362
O_ O_ 0.787196 0.780199 0.923028 -0.61362
O_ O_ 0.590916 0.535111 0.877421 -0.98607
O_ O_ 0.590186 0.786338 0.870259 -0.98607
O_ O_ 0.842352 0.537016 0.869583 -0.98607
O_ O_ 0.842254 0.788802 0.873985 -0.98607
O_ O_ 0.588875 0.57553 0.93945 -0.61362
O_ O_ 0.599098 0.830771 0.938474 -0.61362
O_ O_ 0.841179 0.577573 0.936911 -0.61362
O_ O_ 0.844281 0.831026 0.941205 -0.61362
O_ O_ 0.604619 0.627789 0.688691 -0.55956
O_ O_ 0.60395 0.877328 0.682769 -0.55956
O_ O_ 0.860556 0.638727 0.68989 -0.55956
O_ O_ 0.852347 0.902906 0.694458 -0.55956
O_ O_ 0.727527 0.524617 0.675973 -0.61362
O_ O_ 0.729655 0.772076 0.67773 -0.61362
O_ O_ 0.98547 0.523963 0.674467 -0.61362
O_ O_ 0.981887 0.773112 0.675239 -0.61362
O_ O_ 0.697392 0.532562 0.612338 -0.98607
O_ O_ 0.695671 0.782184 0.619025 -0.98607
O_ O_ 0.950936 0.532176 0.617559 -0.98607
O_ O_ 0.942864 0.782963 0.618781 -0.98607
O_ O_ 0.742054 0.580837 0.686724 -0.61362
O_ O_ 0.734631 0.826309 0.688982 -0.61362
O_ O_ 0.978339 0.572864 0.69031 -0.61362
O_ O_ 0.981439 0.825625 0.688687 -0.61362
O_ O_ 0.570294 0.673611 0.942219 -0.55956
O_ O_ 0.568846 0.929051 0.931967 -0.55956
O_ O_ 0.808618 0.666441 0.943373 -0.55956
O_ O_ 0.814657 0.922749 0.941094 -0.55956
O_ O_ 0.712708 0.724937 0.579497 -0.61362
O_ O_ 0.709327 0.976556 0.577177 -0.61362
O_ O_ 0.952295 0.724088 0.571967 -0.61362
O_ O_ 0.953811 0.976772 0.574838 -0.61362
O_ O_ 0.656461 0.71427 0.629704 -0.98607
O_ O_ 0.659365 0.963135 0.628465 -0.98607
O_ O_ 0.909819 0.715313 0.628606 -0.98607
O_ O_ 0.899186 0.962923 0.621907 -0.98607
O_ O_ 0.662923 0.670818 0.565539 -0.61362
O_ O_ 0.653844 0.924194 0.561731 -0.61362
O_ O_ 0.911258 0.66896 0.563811 -0.61362
O_ O_ 0.908203 0.922919 0.562321 -0.61362
O_ O_ 0.640375 0.615287 0.813239 -0.55956
O_ O_ 0.643771 0.86281 0.803166 -0.55956
O_ O_ 0.892611 0.616285 0.809674 -0.55956
O_ O_ 0.892242 0.858547 0.809666 -0.55956
_cell_length_a 37.194
_cell_length_b 45.259999627434034
_cell_length_c 33.09000048594031
_cell_angle_alpha 107.03300062247644
_cell_angle_beta 90.06299939653213
_cell_angle_gamma 114.03899985713122
_symmetry_space_group_name_H-M         'P 1'
_symmetry_Int_Tables_number            1
loop_
_symmetry_equiv_pos_as_xyz
   'x, y, z'
                         
loop_
_atom_site_label
_atom_site_type_symbol
_atom_site_fract_x 
_atom_site_fract_y
_atom_site_fract_z
_atom_site_charge
Zn Zn 0.0275653 0.177953 0.36396 0.91541
Zn Zn 0.0268461 0.425076 0.363483 0.91541
Zn Zn 0.274011 0.172528 0.366514 0.91541
Zn Zn 0.27732 0.42382 0.363231 0.91541
Zn Zn 0.103469 0.0822937 0.386976 0.91541
Zn Zn 0.111349 0.333309 0.384428 0.91541
Zn Zn 0.352556 0.0787071 0.388602 0.91541
Zn Zn 0.351969 0.328196 0.384573 0.91541
Zn Zn 0.224181 0.0762212 0.135739 0.91541
Zn Zn 0.2271 0.325114 0.131864 0.91541
Zn Zn 0.474814 0.0738378 0.135533 0.91541
Zn Zn 0.478216 0.329559 0.138034 0.91541
Zn Zn 0.149407 0.170983 0.113417 0.91541
Zn Zn 0.144181 0.416474 0.112839 0.91541
Zn Zn 0.396276 0.169163 0.119751 0.91541
Zn Zn 0.39537 0.419997 0.112285 0.91541
Zn Zn 0.0540477 0.00447089 0.377089 1.11764
Zn Zn 0.052818 0.25498 0.372823 1.11764
Zn Zn 0.303208 0.00198559 0.376913 1.11764
Zn Zn 0.301808 0.25275 0.376576 1.11764
Zn Zn 0.191509 0.494826 0.128614 1.11764
Zn Zn 0.198332 0.248215 0.124393 1.11764
Zn Zn 0.445343 0.497758 0.124578 1.11764
Zn Zn 0.450025 0.24835 0.12868 1.11764
H_ H_ 0.251302 0.140121 0.229833 0.1146
H_ H_ 0.253344 0.386573 0.224504 0.1146
H_ H_ 0.505697 0.137465 0.227005 0.1146
H_ H_ 0.509396 0.39582 0.231866 0.1146
H_ H_ 0.191454 0.212977 0.196419 0.1146
H_ H_ 0.185402 0.452355 0.192729 0.1146
H_ H_ 0.442553 0.206837 0.196019 0.1146
H_ H_ 0.432459 0.459724 0.203648 0.1146
H_ H_ 0.232949 0.23212 0.265016 0.1146
H_ H_ 0.221484 0.472316 0.26699 0.1146
H_ H_ 0.476587 0.226652 0.270241 0.1146
H_ H_ 0.468924 0.476656 0.270923 0.1146
H_ H_ 0.225963 0.105225 0.0489729 0.42917
H_ H_ 0.176898 0.31192 0.0319089 0.42917
H_ H_ 0.445371 0.0736205 0.0489422 0.42917
H_ H_ 0.44624 0.323436 0.0397776 0.42917
H_ H_ 0.164694 0.116283 0.0554002 0.1146
H_ H_ 0.146423 0.350066 0.0599485 0.1146
H_ H_ 0.403733 0.102405 0.060841 0.1146
H_ H_ 0.415364 0.359911 0.06052 0.1146
H_ H_ 0.128457 0.0541211 0.0272786 0.1146
H_ H_ 0.0977153 0.288659 0.0634194 0.1146
H_ H_ 0.371482 0.0537154 0.114392 0.1146
H_ H_ 0.376705 0.306642 0.109082 0.1146
H_ H_ 0.143681 0.0492029 0.0721782 0.1146
H_ H_ 0.121715 0.297933 0.114917 0.1146
H_ H_ 0.34602 0.0726416 0.0912533 0.1146
H_ H_ 0.353088 0.32877 0.09392 0.1146
H_ H_ 0.114091 0.0669456 0.0837179 0.1146
H_ H_ 0.0974278 0.324688 0.106592 0.1146
H_ H_ 0.359156 0.0423752 0.0602442 0.1146
H_ H_ 0.362313 0.298751 0.0529013 0.1146
H_ H_ 0.0832321 0.230104 0.396891 0.42917
H_ H_ 0.0733286 0.473032 0.405427 0.42917
H_ H_ 0.330497 0.222221 0.393182 0.42917
H_ H_ 0.331841 0.475009 0.394701 0.42917
H_ H_ 0.11222 0.110108 0.0218991 0.1146
H_ H_ 0.107041 0.360292 0.019758 0.1146
H_ H_ 0.356704 0.114167 0.0174574 0.1146
H_ H_ 0.361881 0.357102 0.0213607 0.1146
H_ H_ 0.224029 0.0443473 0.0494147 0.1146
H_ H_ 0.227299 0.292982 0.0463792 0.1146
H_ H_ 0.484968 0.0325917 0.0537464 0.1146
H_ H_ 0.490576 0.290786 0.0568918 0.1146
H_ H_ 0.252274 0.0187631 0.490685 0.1146
H_ H_ 0.25009 0.268068 0.483406 0.1146
H_ H_ 0.500385 0.0263135 0.47873 0.1146
H_ H_ 0.502445 0.270789 0.485553 0.1146
H_ H_ 0.132763 0.157069 0.214514 0.42917
H_ H_ 0.112679 0.368052 0.20038 0.42917
H_ H_ 0.375624 0.145577 0.207058 0.42917
H_ H_ 0.361637 0.372858 0.198649 0.42917
H_ H_ 0.056616 0.12957 0.197432 0.1146
H_ H_ 0.051739 0.373531 0.193159 0.1146
H_ H_ 0.30301 0.125276 0.1926 0.1146
H_ H_ 0.301008 0.37438 0.188419 0.1146
H_ H_ 0.0589922 0.186184 0.176636 0.1146
H_ H_ 0.0645869 0.429967 0.185734 0.1146
H_ H_ 0.308093 0.182079 0.175549 0.1146
H_ H_ 0.31126 0.433664 0.185252 0.1146
H_ H_ 0.0774183 0.188378 0.227357 0.1146
H_ H_ 0.0954784 0.433382 0.230279 0.1146
H_ H_ 0.326861 0.188468 0.229453 0.1146
H_ H_ 0.338847 0.435498 0.232253 0.1146
H_ H_ 0.109553 0.196249 0.186743 0.1146
H_ H_ 0.117247 0.437162 0.184844 0.1146
H_ H_ 0.359034 0.196725 0.192616 0.1146
H_ H_ 0.364269 0.443398 0.187806 0.1146
H_ H_ 0.11649 0.0350659 0.372005 0.42917
H_ H_ 0.116443 0.282425 0.368836 0.42917
H_ H_ 0.361621 0.029652 0.363434 0.42917
H_ H_ 0.355322 0.277345 0.349826 0.42917
H_ H_ 1.00289859 0.115398 0.269477 0.1146
H_ H_ 0.999344 0.362272 0.271277 0.1146
H_ H_ 0.238675 0.10642 0.277097 0.1146
H_ H_ 0.246984 0.359575 0.269774 0.1146
H_ H_ 0.0586579 0.0411368 0.306564 0.1146
H_ H_ 0.0505309 0.286219 0.304084 0.1146
H_ H_ 0.30967 0.0403388 0.306459 0.1146
H_ H_ 0.304604 0.289061 0.306062 0.1146
H_ H_ 0.0285796 0.027497 0.232666 0.1146
H_ H_ 0.0160763 0.271599 0.234265 0.1146
H_ H_ 0.280143 0.0253383 0.233567 0.1146
H_ H_ 0.276645 0.274333 0.230487 0.1146
H_ H_ 0.0634828 0.1737 0.47159 0.42917
H_ H_ 0.0777825 0.434833 0.469094 0.42917
H_ H_ 0.313209 0.180241 0.465727 0.42917
H_ H_ 0.324117 0.439596 0.456684 0.42917
H_ H_ 0.103973 0.146454 0.432284 0.1146
H_ H_ 0.113746 0.4013 0.432646 0.1146
H_ H_ 0.356058 0.153234 0.445435 0.1146
H_ H_ 0.349481 0.397028 0.43999 0.1146
H_ H_ 0.113684 0.195692 0.383667 0.1146
H_ H_ 0.117356 0.449383 0.385225 0.1146
H_ H_ 0.397073 0.207375 0.442986 0.1146
H_ H_ 0.405173 0.448787 0.433832 0.1146
H_ H_ 0.144873 0.17695 0.392891 0.1146
H_ H_ 0.142796 0.427733 0.382209 0.1146
H_ H_ 0.374622 0.199152 0.389022 0.1146
H_ H_ 0.381934 0.450296 0.390189 0.1146
H_ H_ 0.147294 0.212801 0.430859 0.1146
H_ H_ 0.151183 0.455713 0.435555 0.1146
H_ H_ 0.396478 0.174448 0.397287 0.1146
H_ H_ 0.397055 0.415059 0.386963 0.1146
H_ H_ 0.164277 0.0245039 0.112307 0.42917
H_ H_ 0.169576 0.272841 0.099851 0.42917
H_ H_ 0.417005 0.0239859 0.103476 0.42917
H_ H_ 0.422485 0.278759 0.108195 0.42917
H_ H_ 0.139079 0.138928 0.483223 0.1146
H_ H_ 0.150809 0.384671 0.484132 0.1146
H_ H_ 0.389287 0.137266 0.4796 0.1146
H_ H_ 0.388835 0.384342 0.477821 0.1146
H_ H_ 0.0316416 0.216391 0.452952 0.1146
H_ H_ 0.0219876 0.459104 0.448212 0.1146
H_ H_ 0.272926 0.210339 0.451893 0.1146
H_ H_ 0.269185 0.469217 0.446855 0.1146
H_ H_ 0.005349999999999966 0.219813 0.0218904 0.1146
H_ H_ 0.990689 0.478897 0.0137182 0.1146
H_ H_ 0.250906 0.231886 0.0157042 0.1146
H_ H_ 0.243409 0.480919 0.0175426 0.1146
H_ H_ 0.123227 0.117341 0.291608 0.42917
H_ H_ 0.127741 0.370352 0.299857 0.42917
H_ H_ 0.381148 0.127774 0.313704 0.42917
H_ H_ 0.372229 0.372742 0.298492 0.42917
H_ H_ 0.194753 0.128172 0.308722 0.1146
H_ H_ 0.199334 0.380674 0.304136 0.1146
H_ H_ 0.448902 0.120584 0.305417 0.1146
H_ H_ 0.442609 0.378979 0.308702 0.1146
H_ H_ 0.180247 0.0674184 0.313526 0.1146
H_ H_ 0.150299 0.322503 0.266408 0.1146
H_ H_ 0.41235 0.0689006 0.266608 0.1146
H_ H_ 0.433699 0.317788 0.311353 0.1146
H_ H_ 0.163896 0.0724616 0.267509 0.1146
H_ H_ 0.135559 0.310968 0.313452 0.1146
H_ H_ 0.38272 0.0527557 0.307458 0.1146
H_ H_ 0.414021 0.318893 0.262903 0.1146
H_ H_ 0.129325 0.0567102 0.300912 0.1146
H_ H_ 0.184708 0.321024 0.305666 0.1146
H_ H_ 0.438166 0.0662549 0.315233 0.1146
H_ H_ 0.384491 0.303357 0.301365 0.1146
H_ H_ 0.14304 0.219732 0.140962 0.42917
H_ H_ 0.128881 0.461545 0.12548 0.42917
H_ H_ 0.390433 0.219524 0.138364 0.42917
H_ H_ 0.381825 0.46497 0.130309 0.42917
C_ C_ 0.238376 0.156205 0.222465 -0.12085
C_ C_ 0.241366 0.403078 0.217918 -0.12085
C_ C_ 0.494553 0.154575 0.221977 -0.12085
C_ C_ 0.491599 0.408812 0.224696 -0.12085
C_ C_ 0.0111409 0.197823 0.297415 0.6956
C_ C_ 0.0112046 0.444507 0.300424 0.6956
C_ C_ 0.258312 0.19554 0.301467 0.6956
C_ C_ 0.264054 0.445169 0.295392 0.6956
C_ C_ 0.240938 0.185899 0.254782 -0.16651
C_ C_ 0.243114 0.433137 0.250717 -0.16651
C_ C_ 0.49447 0.184881 0.25666 -0.16651
C_ C_ 0.487306 0.43484 0.258653 -0.16651
C_ C_ 0.206058 0.19785 0.20252 -0.12085
C_ C_ 0.20621 0.442798 0.199897 -0.12085
C_ C_ 0.461356 0.195423 0.202301 -0.12085
C_ C_ 0.448832 0.444793 0.207724 -0.12085
C_ C_ 0.218736 0.146947 0.180566 0.16698
C_ C_ 0.222682 0.394413 0.175376 0.16698
C_ C_ 0.472661 0.145031 0.180166 0.16698
C_ C_ 0.470562 0.398764 0.182563 0.16698
C_ C_ 0.183478 0.120967 0.11931 0.36401
C_ C_ 0.180666 0.366551 0.117887 0.36401
C_ C_ 0.430099 0.118373 0.124566 0.36401
C_ C_ 0.435018 0.372219 0.121558 0.36401
C_ C_ 0.203909 0.168055 0.171833 0.16698
C_ C_ 0.20603 0.415126 0.167183 0.16698
C_ C_ 0.460036 0.167278 0.17073 0.16698
C_ C_ 0.450342 0.416944 0.174797 0.16698
C_ C_ 0.226421 0.207007 0.242481 -0.12085
C_ C_ 0.222978 0.450862 0.241113 -0.12085
C_ C_ 0.476975 0.204395 0.246206 -0.12085
C_ C_ 0.464922 0.451554 0.248765 -0.12085
C_ C_ 0.172097 0.101311 0.0715029 0.15351
C_ C_ 0.154565 0.337658 0.0795708 0.15351
C_ C_ 0.407579 0.0897063 0.0844586 0.15351
C_ C_ 0.417274 0.345525 0.079848 0.15351
C_ C_ 0.137595 0.0667304 0.0625342 -0.35079
C_ C_ 0.116414 0.311064 0.0922547 -0.35079
C_ C_ 0.367774 0.0634108 0.0894965 -0.35079
C_ C_ 0.375751 0.318906 0.084297 -0.35079
C_ C_ 0.0815464 0.0992436 0.0253669 -0.12085
C_ C_ 0.0771696 0.344563 0.0229257 -0.12085
C_ C_ 0.328155 0.0999244 0.022761 -0.12085
C_ C_ 0.331753 0.346606 0.0238274 -0.12085
C_ C_ 0.0667557 0.0601095 0.449895 0.6956
C_ C_ 0.0657831 0.308104 0.445979 0.6956
C_ C_ 0.312543 0.0561064 0.452299 0.6956
C_ C_ 0.316949 0.304234 0.451935 0.6956
C_ C_ 0.0531118 0.0728949 0.492526 -0.16651
C_ C_ 0.0556561 0.319282 0.489995 -0.16651
C_ C_ 0.303211 0.0673766 0.497403 -0.16651
C_ C_ 0.306119 0.314849 0.498137 -0.16651
C_ C_ 0.255004 0.0566727 0.0431724 -0.12085
C_ C_ 0.256363 0.308079 0.039259 -0.12085
C_ C_ 0.505186 0.054009 0.0446244 -0.12085
C_ C_ 0.508629 0.310842 0.0455551 -0.12085
C_ C_ 0.0698504 0.110245 0.0660913 0.16698
C_ C_ 0.0642906 0.355077 0.0607838 0.16698
C_ C_ 0.316917 0.107775 0.0656185 0.16698
C_ C_ 0.317524 0.35839 0.063076 0.16698
C_ C_ 0.0660232 0.125998 0.133288 0.36401
C_ C_ 0.060791 0.371349 0.129207 0.36401
C_ C_ 0.312564 0.12428 0.130894 0.36401
C_ C_ 0.312959 0.375741 0.127287 0.36401
C_ C_ 0.0338131 0.0897267 0.0741647 0.16698
C_ C_ 0.0286096 0.334119 0.0706088 0.16698
C_ C_ 0.281458 0.0861322 0.0739212 0.16698
C_ C_ 0.282338 0.337939 0.0711332 0.16698
C_ C_ 0.0168457 0.0505943 0.503509 -0.12085
C_ C_ 0.0203794 0.296882 0.500414 -0.12085
C_ C_ 0.270457 0.0453609 0.509865 -0.12085
C_ C_ 0.272397 0.29187 0.510309 -0.12085
C_ C_ 0.078194 0.14449 0.179897 0.15351
C_ C_ 0.0752587 0.385899 0.176701 0.15351
C_ C_ 0.324595 0.140172 0.177635 0.15351
C_ C_ 0.325497 0.389914 0.176438 0.15351
C_ C_ 0.0805071 0.179715 0.19207 -0.35079
C_ C_ 0.0886132 0.423388 0.194692 -0.35079
C_ C_ 0.329541 0.177636 0.194915 -0.35079
C_ C_ 0.335736 0.428232 0.19725 -0.35079
C_ C_ 0.0120566 0.0971921 0.276649 -0.12085
C_ C_ 0.00922851 0.346541 0.279021 -0.12085
C_ C_ 0.259715 0.0951165 0.28127 -0.12085
C_ C_ 0.26423 0.346677 0.275162 -0.12085
C_ C_ 0.237523 0.053086 0.201597 0.6956
C_ C_ 0.239978 0.303787 0.198505 0.6956
C_ C_ 0.483449 0.0477851 0.200589 0.6956
C_ C_ 0.486708 0.303276 0.205221 0.6956
C_ C_ 0.0106658 0.0665602 0.244593 -0.16651
C_ C_ 0.00559525 0.31607 0.246776 -0.16651
C_ C_ 0.257398 0.0651495 0.247922 -0.16651
C_ C_ 0.259309 0.314848 0.244886 -0.16651
C_ C_ 0.0409232 0.0551193 0.30084 -0.12085
C_ C_ 0.043364 0.304079 0.296371 -0.12085
C_ C_ 0.30054 0.0575924 0.297915 -0.12085
C_ C_ 0.292605 0.304357 0.297937 -0.12085
C_ C_ 0.0289982 0.105454 0.320141 0.16698
C_ C_ 0.0303062 0.35446 0.318873 0.16698
C_ C_ 0.284983 0.106957 0.320694 0.16698
C_ C_ 0.280988 0.354227 0.317537 0.16698
C_ C_ 0.0636667 0.132092 0.380756 0.36401
C_ C_ 0.0694568 0.381696 0.377359 0.36401
C_ C_ 0.315922 0.130338 0.385375 0.36401
C_ C_ 0.315722 0.379823 0.378491 0.36401
C_ C_ 0.0419924 0.0839532 0.33119 0.16698
C_ C_ 0.0485587 0.334574 0.32593 0.16698
C_ C_ 0.303444 0.0875485 0.329703 0.16698
C_ C_ 0.294886 0.333702 0.328145 0.16698
C_ C_ 0.0251414 0.0471833 0.257652 -0.12085
C_ C_ 0.0242715 0.296588 0.256097 -0.12085
C_ C_ 0.280141 0.0476446 0.257777 -0.12085
C_ C_ 0.276547 0.296179 0.25701 -0.12085
C_ C_ 0.0917564 0.16159 0.419543 0.15351
C_ C_ 0.0972075 0.41066 0.416271 0.15351
C_ C_ 0.342872 0.161106 0.421982 0.15351
C_ C_ 0.345444 0.408521 0.416519 0.15351
C_ C_ 0.125335 0.187887 0.407095 -0.35079
C_ C_ 0.129804 0.440321 0.405677 -0.35079
C_ C_ 0.380678 0.188694 0.413457 -0.35079
C_ C_ 0.383367 0.431603 0.405264 -0.35079
C_ C_ 0.167347 0.15459 0.476304 -0.12085
C_ C_ 0.176734 0.403294 0.474654 -0.12085
C_ C_ 0.41946 0.153362 0.475393 -0.12085
C_ C_ 0.418476 0.39849 0.473408 -0.12085
C_ C_ 0.184666 0.193393 0.0497652 0.6956
C_ C_ 0.180612 0.444611 0.0501336 0.6956
C_ C_ 0.434169 0.191877 0.0539443 0.6956
C_ C_ 0.434936 0.442025 0.0522437 0.6956
C_ C_ 0.198286 0.183773 0.00700508 -0.16651
C_ C_ 0.190379 0.433523 0.00661047 -0.16651
C_ C_ 0.442916 0.180813 0.00744802 -0.16651
C_ C_ 0.445009 0.431559 0.00718695 -0.16651
C_ C_ 1.00333658 0.196175 0.459238 -0.12085
C_ C_ 0.995926 0.441319 0.455513 -0.12085
C_ C_ 0.243813 0.19695 0.460564 -0.12085
C_ C_ 0.248085 0.44939 0.456969 -0.12085
C_ C_ 0.180663 0.144506 0.436418 0.16698
C_ C_ 0.188627 0.393678 0.434223 0.16698
C_ C_ 0.431763 0.145973 0.434389 0.16698
C_ C_ 0.432546 0.388911 0.434282 0.16698
C_ C_ 0.184332 0.12858 0.369837 0.36401
C_ C_ 0.191353 0.380876 0.36907 0.36401
C_ C_ 0.436135 0.124127 0.368539 0.36401
C_ C_ 0.433007 0.374502 0.366153 0.36401
C_ C_ 0.217157 0.167409 0.428368 0.16698
C_ C_ 0.226592 0.416038 0.427833 0.16698
C_ C_ 0.467741 0.166209 0.424364 0.16698
C_ C_ 0.467633 0.409786 0.426837 0.16698
C_ C_ 0.233797 0.204599 0.995896 -0.12085
C_ C_ 0.227844 0.455208 0.994781 -0.12085
C_ C_ 0.480546 0.201029 -0.0022140000000000493 -0.12085
C_ C_ 0.483274 0.449497 0.99811838 -0.12085
C_ C_ 0.169988 0.113453 0.321045 0.15351
C_ C_ 0.175303 0.368294 0.322634 0.15351
C_ C_ 0.42288 0.109286 0.322123 0.15351
C_ C_ 0.417617 0.361151 0.317984 0.15351
C_ C_ 0.159162 0.0756539 0.300553 -0.35079
C_ C_ 0.1604 0.328967 0.300953 -0.35079
C_ C_ 0.412844 0.0707497 0.301664 -0.35079
C_ C_ 0.411129 0.323666 0.299385 -0.35079
N_ N_ 0.206512 0.116177 0.147849 -0.51457
N_ N_ 0.207784 0.363042 0.144728 -0.51457
N_ N_ 0.45652 0.113929 0.15001 -0.51457
N_ N_ 0.460858 0.369194 0.148885 -0.51457
N_ N_ 0.18319 0.153317 0.133261 -0.51457
N_ N_ 0.178509 0.397677 0.132196 -0.51457
N_ N_ 0.430906 0.150713 0.136979 -0.51457
N_ N_ 0.429571 0.402124 0.133913 -0.51457
N_ N_ 0.090844 0.135705 0.103931 -0.51457
N_ N_ 0.0861212 0.38037 0.098665 -0.51457
N_ N_ 0.338603 0.133271 0.102802 -0.51457
N_ N_ 0.339679 0.38355 0.0991315 -0.51457
N_ N_ 0.0297278 0.0983991 0.116241 -0.51457
N_ N_ 0.0251522 0.344252 0.11243 -0.51457
N_ N_ 0.27754 0.0954462 0.114839 -0.51457
N_ N_ 0.276289 0.347436 0.110563 -0.51457
N_ N_ 0.0414294 0.136186 0.352063 -0.51457
N_ N_ 0.0432394 0.385063 0.351377 -0.51457
N_ N_ 0.290839 0.133115 0.356229 -0.51457
N_ N_ 0.293573 0.38445 0.348885 -0.51457
N_ N_ 0.0663853 0.100123 0.367621 -0.51457
N_ N_ 0.0730227 0.350463 0.362878 -0.51457
N_ N_ 0.322237 0.100786 0.369864 -0.51457
N_ N_ 0.317261 0.348325 0.365337 -0.51457
N_ N_ 0.159362 0.119738 0.399191 -0.51457
N_ N_ 0.165571 0.370636 0.397445 -0.51457
N_ N_ 0.409264 0.118773 0.399179 -0.51457
N_ N_ 0.408528 0.364418 0.397195 -0.51457
N_ N_ 0.220989 0.156021 0.38674 -0.51457
N_ N_ 0.227152 0.407686 0.385775 -0.51457
N_ N_ 0.471279 0.153711 0.383419 -0.51457
N_ N_ 0.469214 0.403462 0.385238 -0.51457
O_ O_ 0.0242897 0.229531 0.322114 -0.61362
O_ O_ 0.0180292 0.474738 0.326926 -0.61362
O_ O_ 0.265903 0.226211 0.328801 -0.61362
O_ O_ 0.271627 0.476725 0.319846 -0.61362
O_ O_ 0.0621964 0.223595 0.380751 -0.98607
O_ O_ 0.0577371 0.467724 0.384046 -0.98607
O_ O_ 0.307763 0.218471 0.382935 -0.98607
O_ O_ 0.308824 0.46835 0.382828 -0.98607
O_ O_ 0.0154007 0.175204 0.311522 -0.61362
O_ O_ 0.0225412 0.423921 0.310987 -0.61362
O_ O_ 0.269726 0.175277 0.31469 -0.61362
O_ O_ 0.27203 0.424027 0.308316 -0.61362
O_ O_ 0.201911 0.0960819 0.0547733 -0.55956
O_ O_ 0.173712 0.32165 0.0577348 -0.55956
O_ O_ 0.429851 0.0756061 0.0682033 -0.55956
O_ O_ 0.437957 0.329995 0.0627759 -0.55956
O_ O_ 0.0440426 0.0308978 0.422722 -0.61362
O_ O_ 0.042558 0.277525 0.419786 -0.61362
O_ O_ 0.289225 0.0253461 0.425096 -0.61362
O_ O_ 0.294304 0.27261 0.426136 -0.61362
O_ O_ 0.0957653 0.0394922 0.377636 -0.98607
O_ O_ 0.0971014 0.288576 0.37089 -0.98607
O_ O_ 0.342618 0.0356829 0.368786 -0.98607
O_ O_ 0.340726 0.284074 0.365787 -0.98607
O_ O_ 0.0973819 0.0813766 0.43945 -0.61362
O_ O_ 0.0994087 0.32874 0.436223 -0.61362
O_ O_ 0.344973 0.0768838 0.441376 -0.61362
O_ O_ 0.341378 0.327554 0.436017 -0.61362
O_ O_ 0.112078 0.148159 0.194752 -0.55956
O_ O_ 0.103617 0.379114 0.187061 -0.55956
O_ O_ 0.357882 0.139798 0.186617 -0.55956
O_ O_ 0.354001 0.384552 0.186095 -0.55956
O_ O_ 0.226926 0.0213305 0.17739 -0.61362
O_ O_ 0.232872 0.272744 0.171236 -0.61362
O_ O_ 0.476729 0.0172126 0.17535 -0.61362
O_ O_ 0.480521 0.272448 0.178748 -0.61362
O_ O_ 0.189594 0.031885 0.119499 -0.98607
O_ O_ 0.19173 0.280489 0.116465 -0.98607
O_ O_ 0.439832 0.0297641 0.11664 -0.98607
O_ O_ 0.44712 0.283966 0.120116 -0.98607
O_ O_ 0.228622 0.0736301 0.187343 -0.61362
O_ O_ 0.238072 0.327555 0.185059 -0.61362
O_ O_ 0.476812 0.0692405 0.18696 -0.61362
O_ O_ 0.48195 0.326168 0.189699 -0.61362
O_ O_ 0.075024 0.174412 0.448292 -0.55956
O_ O_ 0.0789646 0.423298 0.443874 -0.55956
O_ O_ 0.323089 0.175715 0.441579 -0.55956
O_ O_ 0.330356 0.4292 0.434153 -0.55956
O_ O_ 0.208454 0.223762 0.0793144 -0.61362
O_ O_ 0.202414 0.476833 0.0769654 -0.61362
O_ O_ 0.453063 0.223713 0.0772934 -0.61362
O_ O_ 0.454388 0.474021 0.0761889 -0.61362
O_ O_ 0.160339 0.214414 0.131505 -0.98607
O_ O_ 0.1513 0.459537 0.125838 -0.98607
O_ O_ 0.40865 0.212918 0.131031 -0.98607
O_ O_ 0.40286 0.46253 0.125461 -0.98607
O_ O_ 0.155642 0.170463 0.0607191 -0.61362
O_ O_ 0.15167 0.421302 0.0620134 -0.61362
O_ O_ 0.413077 0.16843 0.070229 -0.61362
O_ O_ 0.403493 0.42153 0.0624046 -0.61362
O_ O_ 0.140095 0.117997 0.310589 -0.55956
O_ O_ 0.147507 0.374749 0.31655 -0.55956
O_ O_ 0.393024 0.114195 0.312128 -0.55956
O_ O_ 0.386762 0.366081 0.309438 -0.55956
Zn Zn 0.0217932 0.170062 0.861141 0.91541
Zn Zn 0.0212628 0.420847 0.862053 0.91541
Zn Zn 0.276622 0.174358 0.863996 0.91541
Zn Zn 0.270115 0.420889 0.861168 0.91541
Zn Zn 0.107934 0.0817916 0.884002 0.91541
Zn Zn 0.10203 0.328652 0.886555 0.91541
Zn Zn 0.350354 0.0791538 0.883168 0.91541
Zn Zn 0.35454 0.332357 0.88743 0.91541
Zn Zn 0.223418 0.0765355 0.638777 0.91541
Zn Zn 0.225492 0.325156 0.639171 0.91541
Zn Zn 0.474583 0.0801463 0.637715 0.91541
Zn Zn 0.475174 0.330112 0.637569 0.91541
Zn Zn 0.144795 0.168623 0.61707 0.91541
Zn Zn 0.146518 0.417502 0.613764 0.91541
Zn Zn 0.397249 0.173715 0.615779 0.91541
Zn Zn 0.396846 0.420183 0.616872 0.91541
Zn Zn 0.054764 0.00269522 0.873815 1.11764
Zn Zn 0.0508587 0.247741 0.873137 1.11764
Zn Zn 0.302701 0.000142481 0.87149 1.11764
Zn Zn 0.303841 0.252623 0.869677 1.11764
Zn Zn 0.201168 0.495995 0.623905 1.11764
Zn Zn 0.192505 0.244385 0.631438 1.11764
Zn Zn 0.447576 0.495883 0.626523 1.11764
Zn Zn 0.447393 0.251838 0.623297 1.11764
H_ H_ 0.251411 0.140973 0.727993 0.1146
H_ H_ 0.252259 0.389298 0.732152 0.1146
H_ H_ 0.503166 0.143919 0.730251 0.1146
H_ H_ 0.504466 0.392908 0.729541 0.1146
H_ H_ 0.18946 0.209599 0.696799 0.1146
H_ H_ 0.184742 0.452547 0.69347 0.1146
H_ H_ 0.450892 0.216618 0.693753 0.1146
H_ H_ 0.438927 0.463126 0.705135 0.1146
H_ H_ 0.225019 0.22752 0.767858 0.1146
H_ H_ 0.219882 0.475214 0.767612 0.1146
H_ H_ 0.469567 0.230388 0.773638 0.1146
H_ H_ 0.472718 0.477957 0.776342 0.1146
H_ H_ 0.176496 0.0655369 0.541845 0.42917
H_ H_ 0.182676 0.316013 0.542564 0.42917
H_ H_ 0.448766 0.0828066 0.539205 0.42917
H_ H_ 0.444579 0.32714 0.538745 0.42917
H_ H_ 0.139172 0.100811 0.569621 0.1146
H_ H_ 0.14678 0.350295 0.563807 0.1146
H_ H_ 0.409026 0.1127 0.559629 0.1146
H_ H_ 0.40261 0.360159 0.560894 0.1146
H_ H_ 0.090388 0.0684562 0.607317 0.1146
H_ H_ 0.101603 0.298148 0.572001 0.1146
H_ H_ 0.356535 0.0840553 0.600575 0.1146
H_ H_ 0.357685 0.328146 0.608295 0.1146
H_ H_ 0.100829 0.0346163 0.580324 0.1146
H_ H_ 0.127421 0.303367 0.619394 0.1146
H_ H_ 0.356989 0.0564212 0.551125 0.1146
H_ H_ 0.35761 0.302627 0.557661 0.1146
H_ H_ 0.124481 0.0603701 0.63379 0.1146
H_ H_ 0.105633 0.332319 0.622462 0.1146
H_ H_ 0.376575 0.0572355 0.60493 0.1146
H_ H_ 0.380618 0.298125 0.600321 0.1146
H_ H_ 0.0763594 0.220189 0.899728 0.42917
H_ H_ 0.0765169 0.471247 0.900933 0.42917
H_ H_ 0.328775 0.222509 0.896457 0.42917
H_ H_ 0.323977 0.472867 0.896778 0.42917
H_ H_ 0.107966 0.115662 0.525061 0.1146
H_ H_ 0.103603 0.370325 0.514888 0.1146
H_ H_ 0.355775 0.118032 0.521433 0.1146
H_ H_ 0.35255 0.36553 0.52038 0.1146
H_ H_ 0.229252 0.0391149 0.5553 0.1146
H_ H_ 0.234666 0.282763 0.557675 0.1146
H_ H_ 0.48128 0.0377723 0.553701 0.1146
H_ H_ 0.488474 0.28719 0.56164 0.1146
H_ H_ 0.242708 0.0256638 0.977271 0.1146
H_ H_ 0.247285 0.277131 0.973643 0.1146
H_ H_ 0.493901 0.0221878 0.98117 0.1146
H_ H_ 0.497247 0.277303 0.982735 0.1146
H_ H_ 0.125481 0.140079 0.700752 0.42917
H_ H_ 0.128746 0.375975 0.676502 0.42917
H_ H_ 0.381087 0.139349 0.697413 0.42917
H_ H_ 0.379998 0.412586 0.719418 0.42917
H_ H_ 0.0473337 0.126676 0.693374 0.1146
H_ H_ 0.0596333 0.375166 0.692105 0.1146
H_ H_ 0.302068 0.128796 0.69438 0.1146
H_ H_ 0.30433 0.381995 0.701075 0.1146
H_ H_ 0.0749443 0.185511 0.727846 0.1146
H_ H_ 0.0670835 0.433457 0.691302 0.1146
H_ H_ 0.374283 0.192548 0.688736 0.1146
H_ H_ 0.306254 0.43364 0.668423 0.1146
H_ H_ 0.104377 0.195456 0.688292 0.1146
H_ H_ 0.100484 0.438821 0.730869 0.1146
H_ H_ 0.324742 0.189536 0.69343 0.1146
H_ H_ 0.314851 0.438961 0.723506 0.1146
H_ H_ 0.049907 0.176082 0.675752 0.1146
H_ H_ 0.119046 0.443536 0.682812 0.1146
H_ H_ 0.350089 0.186523 0.735569 0.1146
H_ H_ 0.352458 0.45207 0.694761 0.1146
H_ H_ 0.118177 0.034336 0.862524 0.42917
H_ H_ 0.113964 0.280933 0.877377 0.42917
H_ H_ 0.365199 0.0320528 0.86041 0.42917
H_ H_ 0.362031 0.284136 0.85112 0.42917
H_ H_ 0.00610108 0.112758 0.770611 0.1146
H_ H_ -0.008781000000000039 0.354103 0.771694 0.1146
H_ H_ 0.244283 0.109165 0.765974 0.1146
H_ H_ 0.248539 0.358145 0.769483 0.1146
H_ H_ 0.0516371 0.0323008 0.801421 0.1146
H_ H_ 0.063575 0.291016 0.80599 0.1146
H_ H_ 0.305612 0.0391974 0.804281 0.1146
H_ H_ 0.314019 0.292236 0.805635 0.1146
H_ H_ 0.0188495 0.0176621 0.735604 0.1146
H_ H_ 0.0296334 0.271622 0.730337 0.1146
H_ H_ 0.272377 0.0204145 0.734029 0.1146
H_ H_ 0.27184 0.26873 0.734896 0.1146
H_ H_ 0.0485765 0.167083 0.944648 0.42917
H_ H_ 0.0526686 0.432049 0.955132 0.42917
H_ H_ 0.315033 0.177436 0.960451 0.42917
H_ H_ 0.309236 0.428316 0.964789 0.42917
H_ H_ 0.106 0.146919 0.936474 0.1146
H_ H_ 0.0942072 0.398013 0.939445 0.1146
H_ H_ 0.350334 0.142614 0.931132 0.1146
H_ H_ 0.346065 0.39592 0.942573 0.1146
H_ H_ 0.118226 0.194192 0.885549 0.1146
H_ H_ 0.144536 0.422805 0.898095 0.1146
H_ H_ 0.39315 0.168261 0.886206 0.1146
H_ H_ 0.393028 0.422821 0.897933 0.1146
H_ H_ 0.146285 0.17137 0.887098 0.1146
H_ H_ 0.141387 0.458311 0.93678 0.1146
H_ H_ 0.391185 0.204193 0.926305 0.1146
H_ H_ 0.391513 0.454097 0.940779 0.1146
H_ H_ 0.149073 0.206447 0.934923 0.1146
H_ H_ 0.121875 0.442402 0.881236 0.1146
H_ H_ 0.366717 0.189836 0.871516 0.1146
H_ H_ 0.369006 0.44678 0.891145 0.1146
H_ H_ 0.169638 0.0257638 0.597179 0.42917
H_ H_ 0.174419 0.275152 0.600692 0.42917
H_ H_ 0.423073 0.0297369 0.6017 0.42917
H_ H_ 0.429842 0.278888 0.592745 0.42917
H_ H_ 0.142483 0.136386 0.9768 0.1146
H_ H_ 0.13665 0.390636 0.980914 0.1146
H_ H_ 0.385829 0.137403 0.974324 0.1146
H_ H_ 0.388791 0.387267 0.979901 0.1146
H_ H_ 0.0177175 0.211357 0.942434 0.1146
H_ H_ 0.0100369 0.464169 0.939972 0.1146
H_ H_ 0.271784 0.2121 0.946797 0.1146
H_ H_ 0.260102 0.46528 0.945122 0.1146
H_ H_ 0.0125517 0.226074 0.526658 0.1146
H_ H_ 0.00363979 0.476023 0.518685 0.1146
H_ H_ 0.254686 0.226507 0.526462 0.1146
H_ H_ 0.251261 0.479805 0.519578 0.1146
H_ H_ 0.134972 0.123011 0.794693 0.42917
H_ H_ 0.128268 0.351349 0.791277 0.42917
H_ H_ 0.376467 0.127111 0.799494 0.42917
H_ H_ 0.382434 0.376036 0.816599 0.42917
H_ H_ 0.201284 0.125068 0.803154 0.1146
H_ H_ 0.197046 0.369737 0.808004 0.1146
H_ H_ 0.44368 0.125404 0.804281 0.1146
H_ H_ 0.452207 0.37516 0.808294 0.1146
H_ H_ 0.184997 0.0678639 0.827362 0.1146
H_ H_ 0.197356 0.316092 0.830409 0.1146
H_ H_ 0.399762 0.0690152 0.765081 0.1146
H_ H_ 0.427435 0.317782 0.770945 0.1146
H_ H_ 0.173129 0.063285 0.772907 0.1146
H_ H_ 0.170402 0.304098 0.779789 0.1146
H_ H_ 0.370564 0.0604527 0.810472 0.1146
H_ H_ 0.38969 0.308223 0.805473 0.1146
H_ H_ 0.134467 0.0574297 0.806571 0.1146
H_ H_ 0.145347 0.302071 0.827575 0.1146
H_ H_ 0.417169 0.0640347 0.808192 0.1146
H_ H_ 0.436971 0.315898 0.821673 0.1146
H_ H_ 0.127558 0.214482 0.62985 0.42917
H_ H_ 0.137058 0.463239 0.627429 0.42917
H_ H_ 0.385153 0.223991 0.631926 0.42917
H_ H_ 0.386103 0.465189 0.629827 0.42917
C_ C_ 0.23749 0.156151 0.723885 -0.12085
C_ C_ 0.240404 0.405626 0.724762 -0.12085
C_ C_ 0.485779 0.155469 0.725596 -0.12085
C_ C_ 0.487107 0.406411 0.726538 -0.12085
C_ C_ 0.0142556 0.197445 0.796792 0.6956
C_ C_ 0.0172742 0.446429 0.79905 0.6956
C_ C_ 0.26736 0.200565 0.798605 0.6956
C_ C_ 0.263472 0.446619 0.798546 0.6956
C_ C_ 0.243891 0.18774 0.755908 -0.16651
C_ C_ 0.242302 0.435531 0.755257 -0.16651
C_ C_ 0.488009 0.18731 0.759582 -0.16651
C_ C_ 0.492218 0.436635 0.759293 -0.16651
C_ C_ 0.203729 0.195915 0.705695 -0.12085
C_ C_ 0.205463 0.443435 0.702807 -0.12085
C_ C_ 0.456432 0.199753 0.70528 -0.12085
C_ C_ 0.454175 0.447561 0.709567 -0.12085
C_ C_ 0.218728 0.146743 0.682826 0.16698
C_ C_ 0.221675 0.395844 0.682656 0.16698
C_ C_ 0.46601 0.146906 0.6849 0.16698
C_ C_ 0.468825 0.398821 0.685589 0.16698
C_ C_ 0.17881 0.118429 0.625914 0.36401
C_ C_ 0.186409 0.368708 0.621913 0.36401
C_ C_ 0.433569 0.123681 0.623291 0.36401
C_ C_ 0.43481 0.373565 0.624594 0.36401
C_ C_ 0.200154 0.16543 0.67533 0.16698
C_ C_ 0.208346 0.416586 0.670899 0.16698
C_ C_ 0.447776 0.166754 0.678056 0.16698
C_ C_ 0.453238 0.420047 0.678321 0.16698
C_ C_ 0.226198 0.206746 0.744933 -0.12085
C_ C_ 0.221843 0.452877 0.744533 -0.12085
C_ C_ 0.471233 0.207325 0.749285 -0.12085
C_ C_ 0.474345 0.456418 0.750012 -0.12085
C_ C_ 0.150676 0.0881535 0.58807 0.15351
C_ C_ 0.15675 0.340324 0.586743 0.15351
C_ C_ 0.414343 0.0987832 0.579634 0.15351
C_ C_ 0.412082 0.3463 0.581198 0.15351
C_ C_ 0.1155 0.0615333 0.602509 -0.35079
C_ C_ 0.120323 0.317792 0.601252 -0.35079
C_ C_ 0.373864 0.0713406 0.583668 -0.35079
C_ C_ 0.376353 0.316958 0.589215 -0.35079
C_ C_ 0.0797354 0.101848 0.527208 -0.12085
C_ C_ 0.0806605 0.351452 0.524002 -0.12085
C_ C_ 0.328236 0.102146 0.528008 -0.12085
C_ C_ 0.329292 0.347281 0.52885 -0.12085
C_ C_ 0.065847 0.0582113 0.949937 0.6956
C_ C_ 0.061833 0.303311 0.947585 0.6956
C_ C_ 0.313348 0.0562979 0.946058 0.6956
C_ C_ 0.317497 0.307497 0.945714 0.6956
C_ C_ 0.053386 0.0715285 0.991411 -0.16651
C_ C_ 0.0504805 0.315073 0.990106 -0.16651
C_ C_ 0.30176 0.0685202 0.990287 -0.16651
C_ C_ 0.305945 0.320382 0.98954 -0.16651
C_ C_ 0.255914 0.0575285 0.547018 -0.12085
C_ C_ 0.258462 0.302399 0.549241 -0.12085
C_ C_ 0.507928 0.0566929 0.54539 -0.12085
C_ C_ 0.509472 0.30539 0.548242 -0.12085
C_ C_ 0.0659482 0.110202 0.567243 0.16698
C_ C_ 0.0676945 0.3595 0.563782 0.16698
C_ C_ 0.314819 0.1133 0.566661 0.16698
C_ C_ 0.318313 0.355322 0.569611 0.16698
C_ C_ 0.0612912 0.125113 0.633695 0.36401
C_ C_ 0.0660065 0.374283 0.630343 0.36401
C_ C_ 0.311894 0.128056 0.63431 0.36401
C_ C_ 0.314039 0.375166 0.636297 0.36401
C_ C_ 0.0312523 0.0876293 0.576434 0.16698
C_ C_ 0.033405 0.336531 0.57322 0.16698
C_ C_ 0.278255 0.0901634 0.575316 0.16698
C_ C_ 0.282793 0.335156 0.579355 0.16698
C_ C_ 0.0167635 0.0506823 0.00205893 -0.12085
C_ C_ 0.0164559 0.292702 0.00213196 -0.12085
C_ C_ 0.264268 0.0475376 0.0019599999999999618 -0.12085
C_ C_ 0.268237 0.299819 0.998684 -0.12085
C_ C_ 0.073642 0.142636 0.68048 0.15351
C_ C_ 0.0822349 0.38991 0.677824 0.15351
C_ C_ 0.327201 0.139415 0.678332 0.15351
C_ C_ 0.325204 0.396287 0.682542 0.15351
C_ C_ 0.0755085 0.176934 0.692868 -0.35079
C_ C_ 0.0938428 0.427976 0.696466 -0.35079
C_ C_ 0.344255 0.179326 0.698739 -0.35079
C_ C_ 0.325006 0.431249 0.691427 -0.35079
C_ C_ 0.0124858 0.0936665 0.775807 -0.12085
C_ C_ 0.00677793 0.34168 0.778344 -0.12085
C_ C_ 0.26 0.0942889 0.772904 -0.12085
C_ C_ 0.262764 0.345245 0.778324 -0.12085
C_ C_ 0.232563 0.0497128 0.697557 0.6956
C_ C_ 0.233424 0.299513 0.703255 0.6956
C_ C_ 0.486344 0.0563737 0.703008 0.6956
C_ C_ 0.482957 0.300961 0.700358 0.6956
C_ C_ 0.0069304 0.0622173 0.743566 -0.16651
C_ C_ 0.00781555 0.313312 0.745399 -0.16651
C_ C_ 0.254471 0.0619158 0.742004 -0.16651
C_ C_ 0.257556 0.312067 0.746597 -0.16651
C_ C_ 0.038117 0.0498419 0.796361 -0.12085
C_ C_ 0.0503873 0.305702 0.794538 -0.12085
C_ C_ 0.289909 0.0523278 0.79825 -0.12085
C_ C_ 0.297229 0.304438 0.797675 -0.12085
C_ C_ 0.0259262 0.0999495 0.819909 0.16698
C_ C_ 0.0308911 0.353235 0.81623 0.16698
C_ C_ 0.277432 0.101643 0.815907 0.16698
C_ C_ 0.285484 0.356922 0.816776 0.16698
C_ C_ 0.0678345 0.127881 0.877196 0.36401
C_ C_ 0.0634792 0.379733 0.877461 0.36401
C_ C_ 0.311523 0.126844 0.878452 0.36401
C_ C_ 0.315269 0.380336 0.879334 0.36401
C_ C_ 0.043359 0.0803442 0.828344 0.16698
C_ C_ 0.0520472 0.335866 0.824133 0.16698
C_ C_ 0.294782 0.082621 0.826472 0.16698
C_ C_ 0.303027 0.336927 0.825838 0.16698
C_ C_ 0.0222368 0.0425297 0.756511 -0.12085
C_ C_ 0.0286153 0.294777 0.753563 -0.12085
C_ C_ 0.273149 0.0433398 0.755582 -0.12085
C_ C_ 0.276056 0.292898 0.756852 -0.12085
C_ C_ 0.0931542 0.156365 0.917106 0.15351
C_ C_ 0.0867301 0.409998 0.91752 0.15351
C_ C_ 0.340711 0.156723 0.913401 0.15351
C_ C_ 0.336133 0.407693 0.920988 0.15351
C_ C_ 0.128235 0.18423 0.906006 -0.35079
C_ C_ 0.124946 0.436099 0.909011 -0.35079
C_ C_ 0.373978 0.180635 0.898474 -0.35079
C_ C_ 0.373341 0.434035 0.911282 -0.35079
C_ C_ 0.173215 0.151044 0.976151 -0.12085
C_ C_ 0.166082 0.401489 0.975999 -0.12085
C_ C_ 0.416947 0.150088 0.972771 -0.12085
C_ C_ 0.419819 0.399622 0.97578 -0.12085
C_ C_ 0.180143 0.194742 0.55162 0.6956
C_ C_ 0.194175 0.443964 0.551904 0.6956
C_ C_ 0.432728 0.196811 0.551144 0.6956
C_ C_ 0.435637 0.441347 0.551694 0.6956
C_ C_ 0.194286 0.184462 0.509037 -0.16651
C_ C_ 0.202169 0.43309 0.507184 -0.16651
C_ C_ 0.445676 0.184988 0.50771 -0.16651
C_ C_ 0.443357 0.429977 0.50695 -0.16651
C_ C_ 0.993029 0.194341 0.953561 -0.12085
C_ C_ 0.988772 0.445594 0.95253 -0.12085
C_ C_ 0.246293 0.194628 0.957329 -0.12085
C_ C_ 0.238442 0.445411 0.95561 -0.12085
C_ C_ 0.186893 0.140126 0.935664 0.16698
C_ C_ 0.181144 0.391111 0.935927 0.16698
C_ C_ 0.429564 0.137609 0.935075 0.16698
C_ C_ 0.431998 0.391125 0.934754 0.16698
C_ C_ 0.186845 0.129063 0.86717 0.36401
C_ C_ 0.186559 0.371351 0.87216 0.36401
C_ C_ 0.43195 0.125484 0.869225 0.36401
C_ C_ 0.436311 0.376801 0.869144 0.36401
C_ C_ 0.223414 0.161983 0.927883 0.16698
C_ C_ 0.218013 0.411756 0.929012 0.16698
C_ C_ 0.466278 0.157921 0.928664 0.16698
C_ C_ 0.469803 0.411069 0.926874 0.16698
C_ C_ 0.233743 0.203216 0.501961 -0.12085
C_ C_ 0.23651 0.455951 0.497786 -0.12085
C_ C_ 0.480296 0.208257 0.496583 -0.12085
C_ C_ 0.479318 0.451179 0.496145 -0.12085
C_ C_ 0.177036 0.111436 0.818965 0.15351
C_ C_ 0.175384 0.354426 0.824415 0.15351
C_ C_ 0.418304 0.114092 0.82098 0.15351
C_ C_ 0.426597 0.360201 0.821833 0.15351
C_ C_ 0.166385 0.0722622 0.804559 -0.35079
C_ C_ 0.172792 0.317699 0.8144 -0.35079
C_ C_ 0.3992 0.074073 0.798492 -0.35079
C_ C_ 0.42005 0.323455 0.802505 -0.35079
N_ N_ 0.203416 0.11433 0.651975 -0.51457
N_ N_ 0.208079 0.364447 0.652664 -0.51457
N_ N_ 0.457509 0.119 0.649734 -0.51457
N_ N_ 0.45833 0.36928 0.651437 -0.51457
N_ N_ 0.175629 0.149138 0.639932 -0.51457
N_ N_ 0.184267 0.400777 0.635304 -0.51457
N_ N_ 0.428369 0.154164 0.639198 -0.51457
N_ N_ 0.430359 0.404064 0.640387 -0.51457
N_ N_ 0.0871468 0.133956 0.604021 -0.51457
N_ N_ 0.0900488 0.383597 0.600327 -0.51457
N_ N_ 0.338082 0.137521 0.604276 -0.51457
N_ N_ 0.340096 0.38311 0.605808 -0.51457
N_ N_ 0.0267177 0.0959716 0.618046 -0.51457
N_ N_ 0.0313898 0.345525 0.615302 -0.51457
N_ N_ 0.275908 0.0995408 0.615865 -0.51457
N_ N_ 0.27807 0.346129 0.620537 -0.51457
N_ N_ 0.0416005 0.13177 0.851535 -0.51457
N_ N_ 0.038842 0.38178 0.85064 -0.51457
N_ N_ 0.287361 0.129946 0.850475 -0.51457
N_ N_ 0.292793 0.384791 0.850302 -0.51457
N_ N_ 0.0706692 0.0969091 0.863888 -0.51457
N_ N_ 0.0732143 0.351788 0.863536 -0.51457
N_ N_ 0.314378 0.0972538 0.865171 -0.51457
N_ N_ 0.321727 0.351763 0.86595 -0.51457
N_ N_ 0.163348 0.118694 0.897189 -0.51457
N_ N_ 0.160725 0.364151 0.90034 -0.51457
N_ N_ 0.406267 0.115923 0.89776 -0.51457
N_ N_ 0.409755 0.367486 0.898191 -0.51457
N_ N_ 0.22407 0.154726 0.885359 -0.51457
N_ N_ 0.222531 0.399714 0.888158 -0.51457
N_ N_ 0.468278 0.152745 0.886828 -0.51457
N_ N_ 0.472257 0.404636 0.885746 -0.51457
O_ O_ 0.0188411 0.226141 0.823409 -0.61362
O_ O_ 0.0143705 0.473039 0.82659 -0.61362
O_ O_ 0.269249 0.229233 0.82462 -0.61362
O_ O_ 0.269747 0.477429 0.82595 -0.61362
O_ O_ 0.0568794 0.215323 0.881272 -0.98607
O_ O_ 0.0569438 0.465457 0.880914 -0.98607
O_ O_ 0.307667 0.21765 0.881383 -0.98607
O_ O_ 0.301376 0.465884 0.884062 -0.98607
O_ O_ 0.0142877 0.17416 0.810193 -0.61362
O_ O_ 0.02494 0.424892 0.811574 -0.61362
O_ O_ 0.275699 0.17854 0.811411 -0.61362
O_ O_ 0.27255 0.425026 0.810332 -0.61362
O_ O_ 0.16754 0.0713333 0.564988 -0.55956
O_ O_ 0.172106 0.320754 0.565126 -0.55956
O_ O_ 0.434618 0.0842476 0.559799 -0.55956
O_ O_ 0.432608 0.333589 0.55981 -0.55956
O_ O_ 0.0461277 0.0262532 0.925599 -0.61362
O_ O_ 0.037779 0.272428 0.919902 -0.61362
O_ O_ 0.290914 0.0241536 0.917946 -0.61362
O_ O_ 0.293973 0.276438 0.919132 -0.61362
O_ O_ 0.0971809 0.0374671 0.870832 -0.98607
O_ O_ 0.0927862 0.284073 0.874871 -0.98607
O_ O_ 0.343504 0.0345182 0.866703 -0.98607
O_ O_ 0.3426 0.28699 0.864581 -0.98607
O_ O_ 0.0932734 0.0808865 0.935305 -0.61362
O_ O_ 0.0919234 0.32585 0.936525 -0.61362
O_ O_ 0.344423 0.0771378 0.935668 -0.61362
O_ O_ 0.350924 0.326788 0.936802 -0.61362
O_ O_ 0.103184 0.141844 0.700515 -0.55956
O_ O_ 0.110586 0.383386 0.687203 -0.55956
O_ O_ 0.357253 0.132838 0.685337 -0.55956
O_ O_ 0.360279 0.401749 0.697763 -0.55956
O_ O_ 0.231823 0.0216077 0.669803 -0.61362
O_ O_ 0.229761 0.270188 0.675606 -0.61362
O_ O_ 0.479387 0.0263925 0.6758 -0.61362
O_ O_ 0.473727 0.269101 0.674504 -0.61362
O_ O_ 0.188127 0.0313261 0.616806 -0.98607
O_ O_ 0.191402 0.280061 0.621605 -0.98607
O_ O_ 0.443798 0.0363694 0.619795 -0.98607
O_ O_ 0.444644 0.28558 0.615747 -0.98607
O_ O_ 0.218566 0.0688731 0.687265 -0.61362
O_ O_ 0.228472 0.322085 0.690495 -0.61362
O_ O_ 0.482878 0.0798701 0.689732 -0.61362
O_ O_ 0.481333 0.325178 0.687301 -0.61362
O_ O_ 0.0726417 0.169964 0.939089 -0.55956
O_ O_ 0.065912 0.42545 0.935235 -0.55956
O_ O_ 0.324188 0.174144 0.936202 -0.55956
O_ O_ 0.31508 0.420669 0.939899 -0.55956
O_ O_ 0.200815 0.225759 0.579811 -0.61362
O_ O_ 0.215144 0.476197 0.579116 -0.61362
O_ O_ 0.458174 0.22538 0.577279 -0.61362
O_ O_ 0.457427 0.473032 0.577153 -0.61362
O_ O_ 0.147601 0.210338 0.630852 -0.98607
O_ O_ 0.158541 0.460869 0.623802 -0.98607
O_ O_ 0.405041 0.218372 0.628065 -0.98607
O_ O_ 0.407343 0.462849 0.628191 -0.98607
O_ O_ 0.153634 0.171024 0.564887 -0.61362
O_ O_ 0.166306 0.420779 0.562861 -0.61362
O_ O_ 0.401824 0.174445 0.563988 -0.61362
O_ O_ 0.406663 0.419023 0.56443 -0.61362
O_ O_ 0.145872 0.112425 0.804844 -0.55956
O_ O_ 0.144122 0.354587 0.81168 -0.55956
O_ O_ 0.39386 0.125824 0.816215 -0.55956
O_ O_ 0.397266 0.365617 0.811719 -0.55956
Zn Zn 0.0246853 0.673369 0.361688 0.91541
Zn Zn 0.0265042 0.924701 0.363658 0.91541
Zn Zn 0.272557 0.672751 0.364455 0.91541
Zn Zn 0.275154 0.922181 0.362478 0.91541
Zn Zn 0.101726 0.579834 0.38658 0.91541
Zn Zn 0.103264 0.829599 0.384254 0.91541
Zn Zn 0.352347 0.580324 0.385485 0.91541
Zn Zn 0.357011 0.832548 0.386974 0.91541
Zn Zn 0.221034 0.572474 0.137332 0.91541
Zn Zn 0.222331 0.826406 0.134189 0.91541
Zn Zn 0.475977 0.578197 0.14192 0.91541
Zn Zn 0.476265 0.826763 0.137219 0.91541
Zn Zn 0.146012 0.670172 0.109112 0.91541
Zn Zn 0.14342 0.918475 0.113884 0.91541
Zn Zn 0.394378 0.670256 0.114956 0.91541
Zn Zn 0.397888 0.918321 0.114126 0.91541
Zn Zn 0.0531794 0.49966 0.372808 1.11764
Zn Zn 0.0498037 0.749292 0.373913 1.11764
Zn Zn 0.302596 0.49974 0.370609 1.11764
Zn Zn 0.305771 0.754471 0.375885 1.11764
Zn Zn 0.196113 0.995932 0.124938 1.11764
Zn Zn 0.19907 0.750346 0.123247 1.11764
Zn Zn 0.449097 -0.0030879999999999797 0.12632 1.11764
Zn Zn 0.446895 0.747312 0.124538 1.11764
H_ H_ 0.247902 0.638745 0.230604 0.1146
H_ H_ 0.255705 0.891139 0.223712 0.1146
H_ H_ 0.491247 0.634552 0.233469 0.1146
H_ H_ 0.502647 0.889479 0.229512 0.1146
H_ H_ 0.185898 0.706523 0.196537 0.1146
H_ H_ 0.20498 0.96296 0.187657 0.1146
H_ H_ 0.441853 0.708195 0.195549 0.1146
H_ H_ 0.433638 0.953121 0.195547 0.1146
H_ H_ 0.228702 0.729357 0.263787 0.1146
H_ H_ 0.240175 0.982142 0.264565 0.1146
H_ H_ 0.469096 0.723551 0.269593 0.1146
H_ H_ 0.466445 0.970712 0.268903 0.1146
H_ H_ 0.182225 0.570923 0.0317639 0.42917
H_ H_ 0.242696 0.879862 0.0591622 0.42917
H_ H_ 0.435487 0.571269 0.0387679 0.42917
H_ H_ 0.43388 0.814493 0.0369981 0.42917
H_ H_ 0.154666 0.609438 0.0619179 0.1146
H_ H_ 0.167889 0.868178 0.0512475 0.1146
H_ H_ 0.397252 0.602267 0.0615811 0.1146
H_ H_ 0.39946 0.851064 0.0627902 0.1146
H_ H_ 0.102085 0.577298 0.105429 0.1146
H_ H_ 0.156473 0.811924 0.0155457 0.1146
H_ H_ 0.355116 0.58283 0.113759 0.1146
H_ H_ 0.344022 0.815719 0.0964805 0.1146
H_ H_ 0.099259 0.549214 0.0528119 0.1146
H_ H_ 0.17823 0.807281 0.0594415 0.1146
H_ H_ 0.351478 0.54866 0.0640073 0.1146
H_ H_ 0.355883 0.785902 0.0583174 0.1146
H_ H_ 0.122708 0.548665 0.0988821 0.1146
H_ H_ 0.133032 0.811836 0.0658425 0.1146
H_ H_ 0.375836 0.556803 0.116835 0.1146
H_ H_ 0.377635 0.799755 0.110434 0.1146
H_ H_ 0.0784022 0.724164 0.400552 0.42917
H_ H_ 0.0767711 0.973718 0.402522 0.42917
H_ H_ 0.329511 0.719844 0.390922 0.42917
H_ H_ 0.329901 0.974977 0.398146 0.42917
H_ H_ 0.108918 0.610685 0.0243831 0.1146
H_ H_ 0.110744 0.860443 0.0288104 0.1146
H_ H_ 0.355935 0.616616 0.021335 0.1146
H_ H_ 0.356913 0.858591 0.0208965 0.1146
H_ H_ 0.232652 0.533135 0.0544148 0.1146
H_ H_ 0.234142 0.785279 0.0580711 0.1146
H_ H_ 0.490422 0.533963 0.0651456 0.1146
H_ H_ 0.482448 0.787446 0.0495491 0.1146
H_ H_ 0.245631 0.522867 0.478804 0.1146
H_ H_ 0.247487 0.769784 0.479435 0.1146
H_ H_ 0.494055 0.524423 0.483117 0.1146
H_ H_ 0.492383 0.77 0.481887 0.1146
H_ H_ 0.118914 0.620943 0.179911 0.42917
H_ H_ 0.0965493 0.852951 0.181343 0.42917
H_ H_ 0.371214 0.638574 0.183264 0.42917
H_ H_ 0.368535 0.871807 0.191136 0.42917
H_ H_ 0.0514281 0.62744 0.197541 0.1146
H_ H_ 0.047059 0.878776 0.195765 0.1146
H_ H_ 0.290965 0.627302 0.193221 0.1146
H_ H_ 0.30419 0.874228 0.198185 0.1146
H_ H_ 0.115631 0.692538 0.189948 0.1146
H_ H_ 0.0883661 0.941771 0.192169 0.1146
H_ H_ 0.317985 0.683403 0.224587 0.1146
H_ H_ 0.326975 0.933824 0.230663 0.1146
H_ H_ 0.0674841 0.687769 0.199057 0.1146
H_ H_ 0.0984094 0.928709 0.237059 0.1146
H_ H_ 0.358231 0.697048 0.192395 0.1146
H_ H_ 0.364423 0.943732 0.197623 0.1146
H_ H_ 0.0967637 0.684222 0.237064 0.1146
H_ H_ 0.128893 0.927486 0.189932 0.1146
H_ H_ 0.305593 0.684381 0.173952 0.1146
H_ H_ 0.318081 0.933767 0.180549 0.1146
H_ H_ 0.115315 0.533366 0.373875 0.42917
H_ H_ 0.110232 0.781237 0.36164 0.42917
H_ H_ 0.361842 0.531427 0.354754 0.42917
H_ H_ 0.363312 0.782884 0.357114 0.42917
H_ H_ 0.997576 0.610485 0.272023 0.1146
H_ H_ 1.00586 0.863683 0.268819 0.1146
H_ H_ 0.241911 0.609412 0.277808 0.1146
H_ H_ 0.251342 0.861265 0.267566 0.1146
H_ H_ 0.0583566 0.540206 0.308144 0.1146
H_ H_ 0.0682386 0.79656 0.304592 0.1146
H_ H_ 0.294926 0.535569 0.312995 0.1146
H_ H_ 0.32252 0.797142 0.297935 0.1146
H_ H_ 0.0175423 0.518107 0.233549 0.1146
H_ H_ 0.0246514 0.772369 0.235413 0.1146
H_ H_ 0.270435 0.519103 0.238937 0.1146
H_ H_ 0.278137 0.772223 0.231138 0.1146
H_ H_ 0.0762757 0.685089 0.458603 0.42917
H_ H_ 0.0623597 0.933565 0.457554 0.42917
H_ H_ 0.301459 0.674259 0.450175 0.42917
H_ H_ 0.306081 0.920891 0.461638 0.42917
H_ H_ 0.109985 0.649719 0.430278 0.1146
H_ H_ 0.0997744 0.899957 0.439093 0.1146
H_ H_ 0.345035 0.64443 0.439891 0.1146
H_ H_ 0.352588 0.898414 0.442301 0.1146
H_ H_ 0.120674 0.691891 0.369492 0.1146
H_ H_ 0.154794 0.952656 0.435866 0.1146
H_ H_ 0.400274 0.673976 0.395197 0.1146
H_ H_ 0.368046 0.945375 0.385744 0.1146
H_ H_ 0.153067 0.676124 0.386201 0.1146
H_ H_ 0.129802 0.95094 0.386689 0.1146
H_ H_ 0.394423 0.703115 0.44272 0.1146
H_ H_ 0.398426 0.927951 0.402431 0.1146
H_ H_ 0.144774 0.705819 0.423582 0.1146
H_ H_ 0.143328 0.917847 0.382028 0.1146
H_ H_ 0.370097 0.693503 0.387261 0.1146
H_ H_ 0.39546 0.961668 0.44028 0.1146
H_ H_ 0.163886 0.524927 0.112528 0.42917
H_ H_ 0.166535 0.773958 0.103638 0.42917
H_ H_ 0.42303 0.528875 0.101161 0.42917
H_ H_ 0.428036 0.775396 0.0934197 0.42917
H_ H_ 0.14139 0.637094 0.477796 0.1146
H_ H_ 0.136277 0.88716 0.478538 0.1146
H_ H_ 0.391605 0.635465 0.479918 0.1146
H_ H_ 0.398438 0.884976 0.48311 0.1146
H_ H_ 0.0196917 0.71215 0.449099 0.1146
H_ H_ 0.0150426 0.96554 0.441116 0.1146
H_ H_ 0.26996 0.707452 0.43883 0.1146
H_ H_ 0.272215 0.957069 0.455741 0.1146
H_ H_ 1.00184009 0.732066 0.0203842 0.1146
H_ H_ 0.00623834 0.983933 0.0184905 0.1146
H_ H_ 0.252798 0.728315 0.0154922 0.1146
H_ H_ 0.248992 0.975732 0.0149174 0.1146
H_ H_ 0.117174 0.610971 0.289693 0.42917
H_ H_ 0.123763 0.851317 0.302474 0.42917
H_ H_ 0.37277 0.621583 0.303156 0.42917
H_ H_ 0.388722 0.885024 0.31293 0.42917
H_ H_ 0.190599 0.623122 0.297611 0.1146
H_ H_ 0.197497 0.868517 0.306803 0.1146
H_ H_ 0.44429 0.624904 0.30291 0.1146
H_ H_ 0.45151 0.877578 0.305178 0.1146
H_ H_ 0.172912 0.562908 0.313498 0.1146
H_ H_ 0.180152 0.802275 0.276176 0.1146
H_ H_ 0.414907 0.56076 0.312465 0.1146
H_ H_ 0.388951 0.810541 0.308465 0.1146
H_ H_ 0.151356 0.561965 0.266278 0.1146
H_ H_ 0.169015 0.802738 0.331165 0.1146
H_ H_ 0.41017 0.56983 0.262369 0.1146
H_ H_ 0.43904 0.820205 0.301529 0.1146
H_ H_ 0.122812 0.55533 0.307903 0.1146
H_ H_ 0.213196 0.825251 0.325056 0.1146
H_ H_ 0.369102 0.559434 0.295185 0.1146
H_ H_ 0.403623 0.819786 0.261331 0.1146
H_ H_ 0.143964 0.721073 0.140384 0.42917
H_ H_ 0.141575 0.970346 0.150609 0.42917
H_ H_ 0.385105 0.719316 0.129796 0.42917
H_ H_ 0.385921 0.963757 0.137575 0.42917
C_ C_ 0.240144 0.65632 0.222473 -0.12085
C_ C_ 0.237085 0.90427 0.220892 -0.12085
C_ C_ 0.484581 0.652303 0.224897 -0.12085
C_ C_ 0.491587 0.904437 0.221202 -0.12085
C_ C_ 0.0153921 0.699274 0.295571 0.6956
C_ C_ 0.0142619 0.948072 0.299254 0.6956
C_ C_ 0.259552 0.697102 0.298831 0.6956
C_ C_ 0.261632 0.945876 0.29759 0.6956
C_ C_ 0.242498 0.686369 0.252914 -0.16651
C_ C_ 0.240607 0.934532 0.254816 -0.16651
C_ C_ 0.488096 0.682936 0.257583 -0.16651
C_ C_ 0.494013 0.934915 0.253477 -0.16651
C_ C_ 0.202594 0.69356 0.201634 -0.12085
C_ C_ 0.205855 0.944656 0.201012 -0.12085
C_ C_ 0.458512 0.696332 0.204418 -0.12085
C_ C_ 0.452969 0.942424 0.201962 -0.12085
C_ C_ 0.216119 0.644663 0.181554 0.16698
C_ C_ 0.209441 0.891289 0.184348 0.16698
C_ C_ 0.470346 0.64587 0.182527 0.16698
C_ C_ 0.468725 0.893719 0.181108 0.16698
C_ C_ 0.182113 0.620148 0.120139 0.36401
C_ C_ 0.185361 0.87241 0.117392 0.36401
C_ C_ 0.43543 0.62193 0.120413 0.36401
C_ C_ 0.430366 0.86632 0.12284 0.36401
C_ C_ 0.200039 0.664538 0.172171 0.16698
C_ C_ 0.194328 0.912126 0.175598 0.16698
C_ C_ 0.455065 0.666232 0.173003 0.16698
C_ C_ 0.451342 0.912665 0.171039 0.16698
C_ C_ 0.224198 0.705579 0.241812 -0.12085
C_ C_ 0.229363 0.956946 0.240867 -0.12085
C_ C_ 0.472189 0.703384 0.245995 -0.12085
C_ C_ 0.470582 0.951628 0.242952 -0.12085
C_ C_ 0.15839 0.593267 0.0793035 0.15351
C_ C_ 0.184221 0.858684 0.0689593 0.15351
C_ C_ 0.40804 0.59147 0.0817517 0.15351
C_ C_ 0.407732 0.837555 0.0811398 0.15351
C_ C_ 0.118777 0.565637 0.0837056 -0.35079
C_ C_ 0.160517 0.819405 0.0507176 -0.35079
C_ C_ 0.37066 0.567783 0.0927781 -0.35079
C_ C_ 0.368684 0.808636 0.0879537 -0.35079
C_ C_ 0.0797771 0.594752 0.0274907 -0.12085
C_ C_ 0.0794102 0.845344 0.0284377 -0.12085
C_ C_ 0.329534 0.597593 0.0265648 -0.12085
C_ C_ 0.326667 0.844586 0.0251084 -0.12085
C_ C_ 0.064431 0.548666 0.448476 0.6956
C_ C_ 0.0598172 0.80512 0.445366 0.6956
C_ C_ 0.313327 0.553224 0.447627 0.6956
C_ C_ 0.313612 0.805698 0.447731 0.6956
C_ C_ 0.0539071 0.561343 0.492236 -0.16651
C_ C_ 0.0500572 0.817282 0.490524 -0.16651
C_ C_ 0.302695 0.564454 0.49205 -0.16651
C_ C_ 0.300309 0.817936 0.491177 -0.16651
C_ C_ 0.259277 0.552385 0.0469409 -0.12085
C_ C_ 0.254916 0.802849 0.0458103 -0.12085
C_ C_ 0.506416 0.553665 0.0498281 -0.12085
C_ C_ 0.507806 0.805789 0.0411172 -0.12085
C_ C_ 0.0652016 0.606999 0.0653654 0.16698
C_ C_ 0.0645568 0.857535 0.0658257 0.16698
C_ C_ 0.31446 0.60714 0.0668246 0.16698
C_ C_ 0.316503 0.855629 0.065623 0.16698
C_ C_ 0.063134 0.624597 0.132166 0.36401
C_ C_ 0.0605101 0.874179 0.131606 0.36401
C_ C_ 0.308573 0.624425 0.132173 0.36401
C_ C_ 0.314161 0.873256 0.133058 0.36401
C_ C_ 0.0309228 0.5858 0.0733231 0.16698
C_ C_ 0.0265416 0.837693 0.0721327 0.16698
C_ C_ 0.278478 0.584365 0.0735282 0.16698
C_ C_ 0.27973 0.835187 0.0741733 0.16698
C_ C_ 0.0179323 0.53964 0.503661 -0.12085
C_ C_ 0.0152861 0.795096 0.501808 -0.12085
C_ C_ 0.266192 0.545798 0.501387 -0.12085
C_ C_ 0.265917 0.795344 0.503063 -0.12085
C_ C_ 0.077874 0.63897 0.180736 0.15351
C_ C_ 0.0733887 0.885792 0.178018 0.15351
C_ C_ 0.319668 0.641242 0.179562 0.15351
C_ C_ 0.327822 0.887901 0.181094 0.15351
C_ C_ 0.0892839 0.677511 0.202638 -0.35079
C_ C_ 0.100696 0.92363 0.200534 -0.35079
C_ C_ 0.326519 0.67816 0.19226 -0.35079
C_ C_ 0.335738 0.925785 0.197501 -0.35079
C_ C_ 0.00659768 0.591412 0.278286 -0.12085
C_ C_ 0.0134428 0.84505 0.276711 -0.12085
C_ C_ 0.256551 0.594123 0.281991 -0.12085
C_ C_ 0.267819 0.846823 0.272574 -0.12085
C_ C_ 0.231877 0.550253 0.205147 0.6956
C_ C_ 0.240665 0.802944 0.197402 0.6956
C_ C_ 0.481824 0.551064 0.20377 0.6956
C_ C_ 0.485537 0.803628 0.203443 0.6956
C_ C_ 0.00169674 0.559872 0.247211 -0.16651
C_ C_ 0.0084709 0.814337 0.245756 -0.16651
C_ C_ 0.251959 0.562158 0.249671 -0.16651
C_ C_ 0.262137 0.814967 0.241506 -0.16651
C_ C_ 0.0408149 0.552128 0.299784 -0.12085
C_ C_ 0.0456226 0.805081 0.298217 -0.12085
C_ C_ 0.285129 0.55161 0.30314 -0.12085
C_ C_ 0.303186 0.808092 0.293406 -0.12085
C_ C_ 0.024109 0.600707 0.319836 0.16698
C_ C_ 0.0288804 0.852948 0.319623 0.16698
C_ C_ 0.273478 0.601545 0.323995 0.16698
C_ C_ 0.287377 0.857032 0.315759 0.16698
C_ C_ 0.0691808 0.629931 0.374891 0.36401
C_ C_ 0.0680572 0.882263 0.377756 0.36401
C_ C_ 0.313394 0.629277 0.380949 0.36401
C_ C_ 0.316908 0.880166 0.381393 0.36401
C_ C_ 0.0399567 0.581008 0.329946 0.16698
C_ C_ 0.0430634 0.832177 0.330606 0.16698
C_ C_ 0.287634 0.580496 0.333061 0.16698
C_ C_ 0.304006 0.837353 0.324597 0.16698
C_ C_ 0.020529 0.541073 0.257921 -0.12085
C_ C_ 0.026971 0.795162 0.256609 -0.12085
C_ C_ 0.267349 0.541143 0.262062 -0.12085
C_ C_ 0.280966 0.796425 0.253235 -0.12085
C_ C_ 0.0971062 0.659639 0.41043 0.15351
C_ C_ 0.0939525 0.911979 0.415926 0.15351
C_ C_ 0.340134 0.657754 0.417872 0.15351
C_ C_ 0.341961 0.908795 0.420868 0.15351
C_ C_ 0.13013 0.685192 0.394526 -0.35079
C_ C_ 0.133735 0.935152 0.403702 -0.35079
C_ C_ 0.378586 0.683074 0.409548 -0.35079
C_ C_ 0.377441 0.938327 0.41255 -0.35079
C_ C_ 0.171219 0.652193 0.471513 -0.12085
C_ C_ 0.166393 0.900414 0.474054 -0.12085
C_ C_ 0.422819 0.647704 0.475323 -0.12085
C_ C_ 0.424748 0.902736 0.477046 -0.12085
C_ C_ 0.187866 0.693878 0.052096 0.6956
C_ C_ 0.185356 0.941514 0.0485391 0.6956
C_ C_ 0.435928 0.693579 0.0529396 0.6956
C_ C_ 0.43253 0.941623 0.0508124 0.6956
C_ C_ 0.200406 0.681506 0.00886208 -0.16651
C_ C_ 0.194675 0.930393 0.00293994 -0.16651
C_ C_ 0.445069 0.682942 0.00802691 -0.16651
C_ C_ 0.44361 0.931363 0.00580887 -0.16651
C_ C_ 0.996212 0.692882 0.458097 -0.12085
C_ C_ 0.990192 0.947963 0.451653 -0.12085
C_ C_ 0.2411 0.693726 0.44843 -0.12085
C_ C_ 0.244043 0.93967 0.459838 -0.12085
C_ C_ 0.181139 0.640013 0.431094 0.16698
C_ C_ 0.17999 0.890063 0.435202 0.16698
C_ C_ 0.435207 0.638553 0.434281 0.16698
C_ C_ 0.43808 0.89275 0.436882 0.16698
C_ C_ 0.181695 0.624756 0.364733 0.36401
C_ C_ 0.186078 0.872928 0.36868 0.36401
C_ C_ 0.435589 0.6251 0.367153 0.36401
C_ C_ 0.439381 0.877534 0.369955 0.36401
C_ C_ 0.217071 0.660546 0.421247 0.16698
C_ C_ 0.217981 0.910082 0.428212 0.16698
C_ C_ 0.471811 0.658263 0.426414 0.16698
C_ C_ 0.473148 0.915004 0.428433 0.16698
C_ C_ 0.234429 0.702776 0.995469 -0.12085
C_ C_ 0.229 0.951195 0.990801 -0.12085
C_ C_ 0.479576 0.705621 0.996604 -0.12085
C_ C_ 0.481524 0.951734 0.997344 -0.12085
C_ C_ 0.166154 0.610392 0.316586 0.15351
C_ C_ 0.175594 0.851349 0.321447 0.15351
C_ C_ 0.421186 0.613106 0.320851 0.15351
C_ C_ 0.426781 0.863768 0.32033 0.15351
C_ C_ 0.1518 0.571161 0.299539 -0.35079
C_ C_ 0.182537 0.818229 0.310313 -0.35079
C_ C_ 0.402649 0.574537 0.296495 -0.35079
C_ C_ 0.415127 0.826502 0.295816 -0.35079
N_ N_ 0.204115 0.614043 0.149844 -0.51457
N_ N_ 0.203365 0.864931 0.147491 -0.51457
N_ N_ 0.45624 0.615884 0.148639 -0.51457
N_ N_ 0.455583 0.86274 0.14925 -0.51457
N_ N_ 0.175843 0.648578 0.134334 -0.51457
N_ N_ 0.17847 0.900715 0.133746 -0.51457
N_ N_ 0.431625 0.651993 0.134527 -0.51457
N_ N_ 0.428313 0.896981 0.135111 -0.51457
N_ N_ 0.087149 0.633041 0.101862 -0.51457
N_ N_ 0.0868174 0.882664 0.103208 -0.51457
N_ N_ 0.335819 0.633266 0.103667 -0.51457
N_ N_ 0.340438 0.879282 0.1025 -0.51457
N_ N_ 0.0266775 0.595687 0.115424 -0.51457
N_ N_ 0.0249943 0.846086 0.114756 -0.51457
N_ N_ 0.274016 0.594451 0.114723 -0.51457
N_ N_ 0.276489 0.846253 0.115296 -0.51457
N_ N_ 0.0430114 0.634179 0.348047 -0.51457
N_ N_ 0.0447221 0.8856 0.349722 -0.51457
N_ N_ 0.28728 0.63208 0.355249 -0.51457
N_ N_ 0.296175 0.885861 0.352128 -0.51457
N_ N_ 0.066769 0.596914 0.365244 -0.51457
N_ N_ 0.0699456 0.850583 0.36641 -0.51457
N_ N_ 0.317406 0.599151 0.36733 -0.51457
N_ N_ 0.323325 0.850545 0.365166 -0.51457
N_ N_ 0.158434 0.614898 0.394803 -0.51457
N_ N_ 0.158117 0.865159 0.397185 -0.51457
N_ N_ 0.410332 0.616422 0.396476 -0.51457
N_ N_ 0.414873 0.867548 0.400178 -0.51457
N_ N_ 0.216365 0.65402 0.379182 -0.51457
N_ N_ 0.221287 0.900513 0.385813 -0.51457
N_ N_ 0.472755 0.649875 0.38496 -0.51457
N_ N_ 0.474413 0.905991 0.387365 -0.51457
O_ O_ 0.0241116 0.730965 0.322277 -0.61362
O_ O_ 0.0250485 0.98002 0.324833 -0.61362
O_ O_ 0.27867 0.729925 0.323108 -0.61362
O_ O_ 0.276886 0.97868 0.324138 -0.61362
O_ O_ 0.0574195 0.717256 0.381814 -0.98607
O_ O_ 0.0555725 0.968516 0.385783 -0.98607
O_ O_ 0.305932 0.717096 0.382078 -0.98607
O_ O_ 0.308209 0.967996 0.383195 -0.98607
O_ O_ 0.0163446 0.675923 0.309194 -0.61362
O_ O_ 0.0191604 0.925085 0.311264 -0.61362
O_ O_ 0.263106 0.673462 0.310958 -0.61362
O_ O_ 0.266392 0.923139 0.3092 -0.61362
O_ O_ 0.17928 0.579643 0.0582984 -0.55956
O_ O_ 0.218423 0.865048 0.056283 -0.55956
O_ O_ 0.426643 0.574317 0.0619264 -0.55956
O_ O_ 0.428265 0.824028 0.0615881 -0.55956
O_ O_ 0.0403166 0.519407 0.42137 -0.61362
O_ O_ 0.0352662 0.774559 0.416762 -0.61362
O_ O_ 0.293043 0.521386 0.420074 -0.61362
O_ O_ 0.291538 0.77458 0.42266 -0.61362
O_ O_ 0.095242 0.537439 0.375135 -0.98607
O_ O_ 0.0914084 0.786497 0.37294 -0.98607
O_ O_ 0.343997 0.536265 0.366772 -0.98607
O_ O_ 0.34617 0.78902 0.369671 -0.98607
O_ O_ 0.0927764 0.57231 0.43636 -0.61362
O_ O_ 0.0944417 0.824866 0.437296 -0.61362
O_ O_ 0.335625 0.578204 0.433804 -0.61362
O_ O_ 0.345524 0.82671 0.435708 -0.61362
O_ O_ 0.105682 0.632188 0.189484 -0.55956
O_ O_ 0.0935019 0.870597 0.1841 -0.55956
O_ O_ 0.349506 0.638538 0.192817 -0.55956
O_ O_ 0.358686 0.885722 0.191005 -0.55956
O_ O_ 0.220266 0.518422 0.181602 -0.61362
O_ O_ 0.227438 0.770402 0.174127 -0.61362
O_ O_ 0.472373 0.519152 0.176622 -0.61362
O_ O_ 0.474424 0.770737 0.178167 -0.61362
O_ O_ 0.188362 0.530045 0.120472 -0.98607
O_ O_ 0.190194 0.780935 0.118301 -0.98607
O_ O_ 0.444834 0.534204 0.116788 -0.98607
O_ O_ 0.442338 0.781289 0.117698 -0.98607
O_ O_ 0.222508 0.571574 0.19195 -0.61362
O_ O_ 0.236653 0.82517 0.18308 -0.61362
O_ O_ 0.473853 0.573785 0.192999 -0.61362
O_ O_ 0.486267 0.826502 0.186701 -0.61362
O_ O_ 0.0795282 0.676449 0.432626 -0.55956
O_ O_ 0.0744476 0.928156 0.437566 -0.55956
O_ O_ 0.321434 0.675359 0.43737 -0.55956
O_ O_ 0.320274 0.921314 0.441176 -0.55956
O_ O_ 0.211228 0.723687 0.0793405 -0.61362
O_ O_ 0.208238 0.973114 0.0753282 -0.61362
O_ O_ 0.45796 0.723144 0.0795777 -0.61362
O_ O_ 0.45817 0.970238 0.0793825 -0.61362
O_ O_ 0.160656 0.714712 0.129104 -0.98607
O_ O_ 0.157097 0.965051 0.136432 -0.98607
O_ O_ 0.40434 0.714189 0.12452 -0.98607
O_ O_ 0.407974 0.962161 0.131041 -0.98607
O_ O_ 0.151773 0.676133 0.0600594 -0.61362
O_ O_ 0.151973 0.924061 0.0613816 -0.61362
O_ O_ 0.405909 0.670875 0.0643507 -0.61362
O_ O_ 0.4053 0.918789 0.0632248 -0.61362
O_ O_ 0.137942 0.616871 0.307045 -0.55956
O_ O_ 0.140733 0.843108 0.305388 -0.55956
O_ O_ 0.394401 0.62298 0.315551 -0.55956
O_ O_ 0.396862 0.869212 0.312584 -0.55956
Zn Zn 0.0248601 0.673286 0.863307 0.91541
Zn Zn 0.0261789 0.924504 0.863108 0.91541
Zn Zn 0.272916 0.672964 0.862756 0.91541
Zn Zn 0.269627 0.918875 0.86012 0.91541
Zn Zn 0.102673 0.579349 0.884575 0.91541
Zn Zn 0.0999341 0.830175 0.884683 0.91541
Zn Zn 0.351109 0.5795 0.884613 0.91541
Zn Zn 0.351712 0.828561 0.886177 0.91541
Zn Zn 0.22895 0.577085 0.635389 0.91541
Zn Zn 0.222552 0.825192 0.633295 0.91541
Zn Zn 0.47741 0.573998 0.636074 0.91541
Zn Zn 0.473619 0.826405 0.633013 0.91541
Zn Zn 0.148204 0.666799 0.608925 0.91541
Zn Zn 0.142243 0.918534 0.612191 0.91541
Zn Zn 0.396808 0.667896 0.613356 0.91541
Zn Zn 0.394231 0.918989 0.614461 0.91541
Zn Zn 0.0513873 0.499366 0.872458 1.11764
Zn Zn 0.0544947 0.753455 0.873505 1.11764
Zn Zn 0.301102 0.502114 0.877674 1.11764
Zn Zn 0.3037 0.750768 0.873287 1.11764
Zn Zn 0.191759 0.996208 0.625556 1.11764
Zn Zn 0.194333 0.747093 0.619286 1.11764
Zn Zn 0.445414 0.999836 0.626298 1.11764
Zn Zn 0.446631 0.748069 0.625959 1.11764
H_ H_ 0.249423 0.636423 0.731289 0.1146
H_ H_ 0.250228 0.888127 0.723682 0.1146
H_ H_ 0.496251 0.633912 0.72792 0.1146
H_ H_ 0.509247 0.895126 0.728672 0.1146
H_ H_ 0.190817 0.706825 0.687094 0.1146
H_ H_ 0.199822 0.962952 0.683627 0.1146
H_ H_ 0.445091 0.706294 0.688148 0.1146
H_ H_ 0.444704 0.964979 0.697676 0.1146
H_ H_ 0.223121 0.724667 0.763167 0.1146
H_ H_ 0.230838 0.979704 0.75843 0.1146
H_ H_ 0.487153 0.728887 0.760849 0.1146
H_ H_ 0.473267 0.97894 0.769684 0.1146
H_ H_ 0.195801 0.576274 0.526066 0.42917
H_ H_ 0.173169 0.807663 0.538405 0.42917
H_ H_ 0.434009 0.562757 0.535662 0.42917
H_ H_ 0.43739 0.822754 0.536373 0.42917
H_ H_ 0.157789 0.606682 0.552006 0.1146
H_ H_ 0.137478 0.847076 0.562132 0.1146
H_ H_ 0.402509 0.601635 0.556777 0.1146
H_ H_ 0.399488 0.85562 0.560582 0.1146
H_ H_ 0.135816 0.546518 0.592581 0.1146
H_ H_ 0.129005 0.806546 0.62468 0.1146
H_ H_ 0.346042 0.549415 0.562314 0.1146
H_ H_ 0.373312 0.796315 0.599822 0.1146
H_ H_ 0.108063 0.570034 0.589264 0.1146
H_ H_ 0.0907019 0.812651 0.600983 0.1146
H_ H_ 0.372962 0.54993 0.608425 0.1146
H_ H_ 0.350086 0.825702 0.608965 0.1146
H_ H_ 0.113844 0.539367 0.544205 0.1146
H_ H_ 0.108202 0.779722 0.575317 0.1146
H_ H_ 0.351792 0.580683 0.610172 0.1146
H_ H_ 0.350141 0.798416 0.556751 0.1146
H_ H_ 0.0820153 0.723913 0.889278 0.42917
H_ H_ 0.0833609 0.974101 0.890859 0.42917
H_ H_ 0.328378 0.720358 0.899969 0.42917
H_ H_ 0.320609 0.965434 0.896389 0.42917
H_ H_ 0.10734 0.607561 0.514651 0.1146
H_ H_ 0.106615 0.862296 0.522352 0.1146
H_ H_ 0.35798 0.608054 0.518101 0.1146
H_ H_ 0.357437 0.864873 0.520823 0.1146
H_ H_ 0.228438 0.538292 0.552124 0.1146
H_ H_ 0.22503 0.790837 0.550629 0.1146
H_ H_ 0.481684 0.535766 0.556611 0.1146
H_ H_ 0.480226 0.788765 0.552542 0.1146
H_ H_ 0.24898 0.519301 0.981085 0.1146
H_ H_ 0.241069 0.774863 0.976602 0.1146
H_ H_ 0.501661 0.516084 0.987533 0.1146
H_ H_ 0.503651 0.773062 0.978203 0.1146
H_ H_ 0.126826 0.650613 0.70294 0.42917
H_ H_ 0.130923 0.88781 0.695201 0.42917
H_ H_ 0.382811 0.644782 0.704856 0.42917
H_ H_ 0.373471 0.879766 0.682067 0.42917
H_ H_ 0.0550666 0.630388 0.694103 0.1146
H_ H_ 0.0506219 0.869391 0.69184 0.1146
H_ H_ 0.310715 0.629621 0.695661 0.1146
H_ H_ 0.29676 0.87475 0.691151 0.1146
H_ H_ 0.0457418 0.681314 0.680671 0.1146
H_ H_ 0.0899704 0.931936 0.72591 0.1146
H_ H_ 0.326103 0.686481 0.724484 0.1146
H_ H_ 0.335988 0.938182 0.730961 0.1146
H_ H_ 0.0729674 0.690631 0.728842 0.1146
H_ H_ 0.119652 0.933276 0.686014 0.1146
H_ H_ 0.359199 0.700765 0.690477 0.1146
H_ H_ 0.367131 0.939314 0.689794 0.1146
H_ H_ 0.100356 0.703565 0.689528 0.1146
H_ H_ 0.0725336 0.931538 0.676076 0.1146
H_ H_ 0.304777 0.678171 0.671437 0.1146
H_ H_ 0.315725 0.928752 0.677685 0.1146
H_ H_ 0.107315 0.527385 0.854321 0.42917
H_ H_ 0.11783 0.789294 0.861221 0.42917
H_ H_ 0.362692 0.533012 0.866597 0.42917
H_ H_ 0.355645 0.778804 0.851511 0.42917
H_ H_ 0.998178 0.611069 0.772687 0.1146
H_ H_ -0.003010999999999986 0.858531 0.76485 0.1146
H_ H_ 0.247863 0.610445 0.772747 0.1146
H_ H_ 0.253841 0.86124 0.767214 0.1146
H_ H_ 0.0451043 0.532844 0.809026 0.1146
H_ H_ 0.0509451 0.787572 0.811738 0.1146
H_ H_ 0.300685 0.534864 0.810306 0.1146
H_ H_ 0.296783 0.783042 0.806582 0.1146
H_ H_ 0.0229661 0.519917 0.736017 0.1146
H_ H_ 0.0210773 0.769772 0.73353 0.1146
H_ H_ 0.276781 0.522561 0.736686 0.1146
H_ H_ 0.268969 0.768491 0.730847 0.1146
H_ H_ 0.0883482 0.695447 0.956867 0.42917
H_ H_ 0.0575243 0.933982 0.957784 0.42917
H_ H_ 0.306255 0.678596 0.962879 0.42917
H_ H_ 0.307826 0.929621 0.9548 0.42917
H_ H_ 0.103804 0.646192 0.933064 0.1146
H_ H_ 0.0917872 0.89748 0.941516 0.1146
H_ H_ 0.342809 0.645459 0.948277 0.1146
H_ H_ 0.344982 0.895395 0.937319 0.1146
H_ H_ 0.140751 0.657247 0.866913 0.1146
H_ H_ 0.151635 0.924448 0.900858 0.1146
H_ H_ 0.40372 0.69944 0.951845 0.1146
H_ H_ 0.370971 0.951721 0.895895 0.1146
H_ H_ 0.161922 0.691843 0.914836 0.1146
H_ H_ 0.142478 0.951482 0.947412 0.1146
H_ H_ 0.378093 0.708371 0.913954 0.1146
H_ H_ 0.395047 0.92555 0.896259 0.1146
H_ H_ 0.130152 0.693673 0.872391 0.1146
H_ H_ 0.12654 0.951604 0.89274 0.1146
H_ H_ 0.394006 0.67623 0.896503 0.1146
H_ H_ 0.393603 0.955103 0.94526 0.1146
H_ H_ 0.173852 0.528086 0.61429 0.42917
H_ H_ 0.166143 0.772756 0.596345 0.42917
H_ H_ 0.42012 0.525992 0.60426 0.42917
H_ H_ 0.423046 0.77265 0.594986 0.42917
H_ H_ 0.144001 0.634455 0.98282 0.1146
H_ H_ 0.138632 0.885291 0.976787 0.1146
H_ H_ 0.40018 0.628794 0.984714 0.1146
H_ H_ 0.389678 0.885964 0.979567 0.1146
H_ H_ 0.0190541 0.715398 0.941914 0.1146
H_ H_ 0.0184965 0.965613 0.941286 0.1146
H_ H_ 0.264401 0.712804 0.941814 0.1146
H_ H_ 0.265382 0.958171 0.941163 0.1146
H_ H_ 1.00963527 0.718859 0.52529 0.1146
H_ H_ 1.00127061 0.98172 0.517082 0.1146
H_ H_ 0.255915 0.726734 0.511898 0.1146
H_ H_ 0.251247 0.973428 0.524694 0.1146
H_ H_ 0.125457 0.603611 0.80254 0.42917
H_ H_ 0.124666 0.86954 0.795204 0.42917
H_ H_ 0.373077 0.623196 0.813461 0.42917
H_ H_ 0.387876 0.869096 0.785335 0.42917
H_ H_ 0.197191 0.619041 0.804036 0.1146
H_ H_ 0.193016 0.870216 0.800121 0.1146
H_ H_ 0.442139 0.622536 0.807376 0.1146
H_ H_ 0.449691 0.870702 0.805773 0.1146
H_ H_ 0.183518 0.555982 0.781102 0.1146
H_ H_ 0.156471 0.810327 0.760221 0.1146
H_ H_ 0.423172 0.563853 0.827194 0.1146
H_ H_ 0.434555 0.814122 0.817867 0.1146
H_ H_ 0.163414 0.551873 0.829109 0.1146
H_ H_ 0.125234 0.805161 0.804495 0.1146
H_ H_ 0.41248 0.561335 0.772902 0.1146
H_ H_ 0.409168 0.811118 0.767257 0.1146
H_ H_ 0.211295 0.578149 0.831631 0.1146
H_ H_ 0.177317 0.81109 0.810392 0.1146
H_ H_ 0.374612 0.54843 0.806655 0.1146
H_ H_ 0.383793 0.80701 0.807292 0.1146
H_ H_ 0.138856 0.714943 0.636725 0.42917
H_ H_ 0.13141 0.966251 0.637685 0.42917
H_ H_ 0.383818 0.711644 0.626259 0.42917
H_ H_ 0.386649 0.970867 0.638487 0.42917
C_ C_ 0.237065 0.652091 0.721732 -0.12085
C_ C_ 0.238374 0.903033 0.717711 -0.12085
C_ C_ 0.48825 0.651261 0.719494 -0.12085
C_ C_ 0.493124 0.908997 0.7218 -0.12085
C_ C_ 0.0133728 0.694106 0.798839 0.6956
C_ C_ 0.012501 0.944261 0.796794 0.6956
C_ C_ 0.258728 0.69263 0.799407 0.6956
C_ C_ 0.260968 0.945637 0.793266 0.6956
C_ C_ 0.239865 0.682971 0.753791 -0.16651
C_ C_ 0.245836 0.935629 0.747241 -0.16651
C_ C_ 0.491763 0.682072 0.751706 -0.16651
C_ C_ 0.494607 0.93954 0.753868 -0.16651
C_ C_ 0.206973 0.692636 0.696894 -0.12085
C_ C_ 0.213417 0.948323 0.693078 -0.12085
C_ C_ 0.461484 0.694041 0.697168 -0.12085
C_ C_ 0.457755 0.948996 0.702789 -0.12085
C_ C_ 0.222856 0.645199 0.677181 0.16698
C_ C_ 0.219951 0.8948 0.676065 0.16698
C_ C_ 0.477848 0.645434 0.675521 0.16698
C_ C_ 0.471653 0.898758 0.68004 0.16698
C_ C_ 0.184956 0.618434 0.616841 0.36401
C_ C_ 0.179896 0.866679 0.618796 0.36401
C_ C_ 0.433668 0.616648 0.619162 0.36401
C_ C_ 0.431881 0.870709 0.620846 0.36401
C_ C_ 0.210097 0.666765 0.666199 0.16698
C_ C_ 0.208073 0.91664 0.66466 0.16698
C_ C_ 0.462487 0.666135 0.665226 0.16698
C_ C_ 0.454513 0.918429 0.671749 0.16698
C_ C_ 0.225171 0.703052 0.7401 -0.12085
C_ C_ 0.231738 0.95767 0.735742 -0.12085
C_ C_ 0.480847 0.704442 0.739185 -0.12085
C_ C_ 0.474735 0.957902 0.744877 -0.12085
C_ C_ 0.165879 0.591904 0.571731 0.15351
C_ C_ 0.151393 0.835556 0.582194 0.15351
C_ C_ 0.40789 0.588585 0.578283 0.15351
C_ C_ 0.407369 0.842184 0.579253 0.15351
C_ C_ 0.129618 0.560062 0.57403 -0.35079
C_ C_ 0.116988 0.807657 0.596215 -0.35079
C_ C_ 0.368348 0.566567 0.59187 -0.35079
C_ C_ 0.368094 0.814281 0.586933 -0.35079
C_ C_ 0.0792817 0.593088 0.523565 -0.12085
C_ C_ 0.075166 0.848062 0.52336 -0.12085
C_ C_ 0.328313 0.59553 0.523748 -0.12085
C_ C_ 0.324972 0.850006 0.524428 -0.12085
C_ C_ 0.0664268 0.553081 0.949542 0.6956
C_ C_ 0.0627548 0.80705 0.947685 0.6956
C_ C_ 0.313334 0.552913 0.949563 0.6956
C_ C_ 0.310744 0.803626 0.946907 0.6956
C_ C_ 0.0545623 0.564722 0.993952 -0.16651
C_ C_ 0.0510741 0.816389 0.992373 -0.16651
C_ C_ 0.304416 0.565084 0.994378 -0.16651
C_ C_ 0.297651 0.816421 0.991164 -0.16651
C_ C_ 0.254933 0.556091 0.542398 -0.12085
C_ C_ 0.250076 0.807483 0.54038 -0.12085
C_ C_ 0.50735 0.554676 0.5476 -0.12085
C_ C_ 0.503074 0.806449 0.54296 -0.12085
C_ C_ 0.0673859 0.603613 0.563772 0.16698
C_ C_ 0.0614016 0.857868 0.562438 0.16698
C_ C_ 0.314918 0.608042 0.563868 0.16698
C_ C_ 0.311949 0.858465 0.562766 0.16698
C_ C_ 0.0642599 0.62565 0.629358 0.36401
C_ C_ 0.0611555 0.869028 0.629137 0.36401
C_ C_ 0.31516 0.624698 0.631293 0.36401
C_ C_ 0.311483 0.86894 0.629498 0.36401
C_ C_ 0.0331294 0.582104 0.57375 0.16698
C_ C_ 0.0247621 0.837977 0.569427 0.16698
C_ C_ 0.280216 0.586436 0.573253 0.16698
C_ C_ 0.274937 0.838276 0.570839 0.16698
C_ C_ 0.0170507 0.545651 1.00343625 -0.12085
C_ C_ 0.0129785 0.796222 -0.000601891 -0.12085
C_ C_ 0.269357 0.542786 0.00592105 -0.12085
C_ C_ 0.260585 0.795598 0.00174426 -0.12085
C_ C_ 0.0747843 0.648103 0.677152 0.15351
C_ C_ 0.0766146 0.884698 0.67793 0.15351
C_ C_ 0.331093 0.644361 0.67754 0.15351
C_ C_ 0.323924 0.886984 0.677473 0.15351
C_ C_ 0.0719046 0.681563 0.693558 -0.35079
C_ C_ 0.0910199 0.922832 0.692241 -0.35079
C_ C_ 0.330964 0.680048 0.691286 -0.35079
C_ C_ 0.337202 0.925561 0.694679 -0.35079
C_ C_ 0.0102193 0.594073 0.779527 -0.12085
C_ C_ 0.00721465 0.842521 0.775756 -0.12085
C_ C_ 0.265231 0.597741 0.777259 -0.12085
C_ C_ 0.260018 0.842243 0.775805 -0.12085
C_ C_ 0.241818 0.552957 0.702088 0.6956
C_ C_ 0.231001 0.798039 0.698029 0.6956
C_ C_ 0.4864 0.550146 0.703986 0.6956
C_ C_ 0.484728 0.801408 0.699831 0.6956
C_ C_ 0.00659958 0.563018 0.746672 -0.16651
C_ C_ 0.00777266 0.812735 0.745583 -0.16651
C_ C_ 0.26094 0.56549 0.748063 -0.16651
C_ C_ 0.254261 0.811255 0.74311 -0.16651
C_ C_ 0.0376632 0.550339 0.800918 -0.12085
C_ C_ 0.0394025 0.802146 0.799158 -0.12085
C_ C_ 0.295789 0.555043 0.801609 -0.12085
C_ C_ 0.288609 0.800401 0.797235 -0.12085
C_ C_ 0.0224436 0.600615 0.823101 0.16698
C_ C_ 0.0280344 0.853493 0.817143 0.16698
C_ C_ 0.284985 0.60745 0.820328 0.16698
C_ C_ 0.274572 0.850566 0.817506 0.16698
C_ C_ 0.0668689 0.62971 0.877521 0.36401
C_ C_ 0.0668945 0.882124 0.876989 0.36401
C_ C_ 0.320001 0.632988 0.881922 0.36401
C_ C_ 0.317002 0.879945 0.874954 0.36401
C_ C_ 0.0398564 0.580787 0.830304 0.16698
C_ C_ 0.0437609 0.83253 0.82677 0.16698
C_ C_ 0.298782 0.585908 0.829737 0.16698
C_ C_ 0.292328 0.831062 0.827276 0.16698
C_ C_ 0.0227076 0.542028 0.758173 -0.12085
C_ C_ 0.022695 0.792197 0.757232 -0.12085
C_ C_ 0.277364 0.545822 0.759287 -0.12085
C_ C_ 0.269265 0.790623 0.755025 -0.12085
C_ C_ 0.0993964 0.659742 0.910262 0.15351
C_ C_ 0.0886326 0.910297 0.919729 0.15351
C_ C_ 0.340795 0.658988 0.926294 0.15351
C_ C_ 0.339618 0.909811 0.917108 0.15351
C_ C_ 0.1347 0.677273 0.889023 -0.35079
C_ C_ 0.129587 0.935905 0.914531 -0.35079
C_ C_ 0.381306 0.688009 0.922352 -0.35079
C_ C_ 0.377361 0.937031 0.913707 -0.35079
C_ C_ 0.173897 0.649734 0.97518 -0.12085
C_ C_ 0.168438 0.898012 0.970589 -0.12085
C_ C_ 0.421734 0.64908 0.977587 -0.12085
C_ C_ 0.417661 0.899877 0.973093 -0.12085
C_ C_ 0.187681 0.692083 0.547663 0.6956
C_ C_ 0.182054 0.942566 0.5527 0.6956
C_ C_ 0.43485 0.690187 0.551434 0.6956
C_ C_ 0.438966 0.944368 0.554168 0.6956
C_ C_ 0.19861 0.682681 0.503452 -0.16651
C_ C_ 0.191405 0.932059 0.506298 -0.16651
C_ C_ 0.449488 0.67728 0.509325 -0.16651
C_ C_ 0.450622 0.933194 0.50957 -0.16651
C_ C_ 0.994047 0.698201 0.954654 -0.12085
C_ C_ 0.992286 0.949301 0.953683 -0.12085
C_ C_ 0.244845 0.692049 0.953715 -0.12085
C_ C_ 0.239512 0.940508 0.950602 -0.12085
C_ C_ 0.187027 0.638001 0.935281 0.16698
C_ C_ 0.181191 0.885544 0.930798 0.16698
C_ C_ 0.432164 0.640303 0.936546 0.16698
C_ C_ 0.4308 0.891078 0.934026 0.16698
C_ C_ 0.187318 0.623692 0.867408 0.36401
C_ C_ 0.184292 0.872143 0.864582 0.36401
C_ C_ 0.432367 0.62434 0.870667 0.36401
C_ C_ 0.433835 0.875412 0.867089 0.36401
C_ C_ 0.221578 0.660114 0.925999 0.16698
C_ C_ 0.219449 0.907053 0.922699 0.16698
C_ C_ 0.467787 0.661003 0.927872 0.16698
C_ C_ 0.466998 0.912054 0.925664 0.16698
C_ C_ 0.234948 0.702885 0.491888 -0.12085
C_ C_ 0.230213 0.949869 0.498731 -0.12085
C_ C_ 0.484646 0.701263 0.497988 -0.12085
C_ C_ 0.487116 0.956114 0.500507 -0.12085
C_ C_ 0.177169 0.602765 0.821741 0.15351
C_ C_ 0.167644 0.856523 0.815697 0.15351
C_ C_ 0.417037 0.607666 0.822659 0.15351
C_ C_ 0.423595 0.858029 0.818957 0.15351
C_ C_ 0.184521 0.570059 0.815733 -0.35079
C_ C_ 0.156115 0.81924 0.796402 -0.35079
C_ C_ 0.405475 0.569381 0.805481 -0.35079
C_ C_ 0.414851 0.82129 0.803361 -0.35079
N_ N_ 0.208015 0.613974 0.645397 -0.51457
N_ N_ 0.205135 0.862359 0.644199 -0.51457
N_ N_ 0.459705 0.612562 0.646072 -0.51457
N_ N_ 0.4577 0.868308 0.648195 -0.51457
N_ N_ 0.183546 0.649327 0.629969 -0.51457
N_ N_ 0.178096 0.898174 0.631272 -0.51457
N_ N_ 0.434698 0.649043 0.629657 -0.51457
N_ N_ 0.429835 0.901992 0.63426 -0.51457
N_ N_ 0.0891442 0.634287 0.599083 -0.51457
N_ N_ 0.0851738 0.877961 0.600024 -0.51457
N_ N_ 0.337669 0.63318 0.599562 -0.51457
N_ N_ 0.335345 0.877944 0.600038 -0.51457
N_ N_ 0.0306681 0.593028 0.614625 -0.51457
N_ N_ 0.0245624 0.843709 0.610676 -0.51457
N_ N_ 0.280026 0.595954 0.616107 -0.51457
N_ N_ 0.27492 0.843273 0.613059 -0.51457
N_ N_ 0.0414312 0.633464 0.851838 -0.51457
N_ N_ 0.0422787 0.884639 0.848328 -0.51457
N_ N_ 0.295916 0.637034 0.853459 -0.51457
N_ N_ 0.290958 0.882919 0.847217 -0.51457
N_ N_ 0.0675743 0.597632 0.865919 -0.51457
N_ N_ 0.0672221 0.849936 0.865067 -0.51457
N_ N_ 0.319708 0.601368 0.868913 -0.51457
N_ N_ 0.320009 0.848829 0.862973 -0.51457
N_ N_ 0.162953 0.614366 0.898116 -0.51457
N_ N_ 0.158572 0.865039 0.893471 -0.51457
N_ N_ 0.40811 0.616025 0.900841 -0.51457
N_ N_ 0.408134 0.866853 0.896823 -0.51457
N_ N_ 0.224255 0.650761 0.884058 -0.51457
N_ N_ 0.220358 0.896994 0.881341 -0.51457
N_ N_ 0.469321 0.650829 0.885213 -0.51457
N_ N_ 0.467793 0.904223 0.883015 -0.51457
O_ O_ 0.0185142 0.724997 0.82654 -0.61362
O_ O_ 0.0212187 0.976368 0.823694 -0.61362
O_ O_ 0.265686 0.72196 0.824839 -0.61362
O_ O_ 0.275651 0.977586 0.817879 -0.61362
O_ O_ 0.0594724 0.718862 0.877644 -0.98607
O_ O_ 0.060389 0.968133 0.878319 -0.98607
O_ O_ 0.307863 0.71574 0.883657 -0.98607
O_ O_ 0.301486 0.962702 0.880768 -0.98607
O_ O_ 0.0207736 0.67251 0.812497 -0.61362
O_ O_ 0.0233353 0.922993 0.809305 -0.61362
O_ O_ 0.273179 0.673737 0.809578 -0.61362
O_ O_ 0.257264 0.921347 0.80943 -0.61362
O_ O_ 0.188316 0.579926 0.550469 -0.55956
O_ O_ 0.171888 0.821134 0.562491 -0.55956
O_ O_ 0.424446 0.569514 0.558203 -0.55956
O_ O_ 0.427573 0.827131 0.558189 -0.55956
O_ O_ 0.0453594 0.520841 0.923638 -0.61362
O_ O_ 0.044249 0.776198 0.922412 -0.61362
O_ O_ 0.28889 0.52448 0.923468 -0.61362
O_ O_ 0.290718 0.771454 0.924118 -0.61362
O_ O_ 0.0907701 0.534631 0.867438 -0.98607
O_ O_ 0.0963718 0.789299 0.869106 -0.98607
O_ O_ 0.342198 0.53607 0.873485 -0.98607
O_ O_ 0.340298 0.784999 0.86694 -0.98607
O_ O_ 0.094714 0.575637 0.937413 -0.61362
O_ O_ 0.0937868 0.828848 0.936991 -0.61362
O_ O_ 0.342968 0.575357 0.937144 -0.61362
O_ O_ 0.345678 0.823393 0.938503 -0.61362
O_ O_ 0.110534 0.656457 0.69111 -0.55956
O_ O_ 0.106183 0.878869 0.688276 -0.55956
O_ O_ 0.367074 0.648249 0.689265 -0.55956
O_ O_ 0.351699 0.880581 0.688589 -0.55956
O_ O_ 0.224317 0.519948 0.679175 -0.61362
O_ O_ 0.219335 0.765773 0.674456 -0.61362
O_ O_ 0.468531 0.516878 0.681855 -0.61362
O_ O_ 0.474535 0.769821 0.677276 -0.61362
O_ O_ 0.198943 0.533694 0.621774 -0.98607
O_ O_ 0.188065 0.779906 0.611672 -0.98607
O_ O_ 0.442449 0.529828 0.617833 -0.98607
O_ O_ 0.442444 0.780963 0.614116 -0.98607
O_ O_ 0.247735 0.576938 0.684063 -0.61362
O_ O_ 0.231038 0.822386 0.682345 -0.61362
O_ O_ 0.487415 0.573876 0.686795 -0.61362
O_ O_ 0.487921 0.824487 0.682704 -0.61362
O_ O_ 0.0866405 0.680472 0.93324 -0.55956
O_ O_ 0.0687335 0.927339 0.935742 -0.55956
O_ O_ 0.32182 0.676471 0.944827 -0.55956
O_ O_ 0.319649 0.926296 0.934326 -0.55956
O_ O_ 0.208812 0.723124 0.575524 -0.61362
O_ O_ 0.197001 0.976275 0.573063 -0.61362
O_ O_ 0.451262 0.723172 0.574321 -0.61362
O_ O_ 0.459995 0.975865 0.57931 -0.61362
O_ O_ 0.157402 0.711654 0.624178 -0.98607
O_ O_ 0.150677 0.960759 0.62701 -0.98607
O_ O_ 0.40558 0.710142 0.624059 -0.98607
O_ O_ 0.404056 0.962833 0.628136 -0.98607
O_ O_ 0.15421 0.671064 0.557412 -0.61362
O_ O_ 0.149734 0.922442 0.564675 -0.61362
O_ O_ 0.407137 0.668481 0.564042 -0.61362
O_ O_ 0.405555 0.924823 0.56396 -0.61362
O_ O_ 0.141751 0.594975 0.808845 -0.55956
O_ O_ 0.137975 0.862376 0.809632 -0.55956
O_ O_ 0.385704 0.61125 0.815379 -0.55956
O_ O_ 0.39543 0.861107 0.803597 -0.55956
Zn Zn 0.526287 0.173149 0.367904 0.91541
Zn Zn 0.522743 0.421835 0.365684 0.91541
Zn Zn 0.77753 0.174022 0.364639 0.91541
Zn Zn 0.774583 0.42186 0.360063 0.91541
Zn Zn 0.602819 0.0789601 0.387721 0.91541
Zn Zn 0.605374 0.330454 0.389444 0.91541
Zn Zn 0.857467 0.0823085 0.384439 0.91541
Zn Zn 0.85207 0.328891 0.382636 0.91541
Zn Zn 0.724757 0.0793381 0.138808 0.91541
Zn Zn 0.72313 0.326644 0.136513 0.91541
Zn Zn 0.976447 0.0784836 0.137753 0.91541
Zn Zn 0.97397 0.324766 0.134066 0.91541
Zn Zn 0.644667 0.170528 0.117316 0.91541
Zn Zn 0.64804 0.422794 0.111423 0.91541
Zn Zn 0.896287 0.168443 0.11348 0.91541
Zn Zn 0.895778 0.417647 0.113672 0.91541
Zn Zn 0.549649 1.00323857 0.374961 1.11764
Zn Zn 0.559052 0.251806 0.378198 1.11764
Zn Zn 0.803523 0.00192939 0.37187 1.11764
Zn Zn 0.808756 0.252783 0.378651 1.11764
Zn Zn 0.698307 0.501127 0.1243 1.11764
Zn Zn 0.68844 0.246918 0.122618 1.11764
Zn Zn 0.943078 0.495644 0.124483 1.11764
Zn Zn 0.947482 0.246029 0.124454 1.11764
H_ H_ 0.754397 0.144358 0.228473 0.1146
H_ H_ 0.747396 0.38782 0.226596 0.1146
H_ H_ 0.00499061 0.142141 0.225905 0.1146
H_ H_ 1.0072495 0.391086 0.229223 0.1146
H_ H_ 0.686493 0.208581 0.202082 0.1146
H_ H_ 0.691264 0.460224 0.193272 0.1146
H_ H_ 0.938974 0.210135 0.193631 0.1146
H_ H_ 0.936126 0.457632 0.198357 0.1146
H_ H_ 0.717982 0.224291 0.273081 0.1146
H_ H_ 0.726267 0.47619 0.265196 0.1146
H_ H_ 0.976751 0.22987 0.266156 0.1146
H_ H_ 0.966723 0.471019 0.272362 0.1146
H_ H_ 0.675858 0.0659422 0.0403646 0.42917
H_ H_ 0.690312 0.316839 0.0369512 0.42917
H_ H_ 0.948164 0.0738263 0.0396278 0.42917
H_ H_ 0.934678 0.319809 0.0350699 0.42917
H_ H_ 0.641033 0.103578 0.0687098 0.1146
H_ H_ 0.665909 0.363655 0.054903 0.1146
H_ H_ 0.908023 0.104688 0.0552062 0.1146
H_ H_ 0.894701 0.349268 0.0624532 0.1146
H_ H_ 0.601848 0.0405404 0.0772437 0.1146
H_ H_ 0.605997 0.334471 0.0905558 0.1146
H_ H_ 0.852802 0.048502 0.0533081 0.1146
H_ H_ 0.856483 0.324197 0.117109 0.1146
H_ H_ 0.625853 0.0626484 0.131261 0.1146
H_ H_ 0.607332 0.303378 0.0409897 0.1146
H_ H_ 0.876035 0.0564993 0.10642 0.1146
H_ H_ 0.848659 0.287232 0.0652378 0.1146
H_ H_ 0.593082 0.0734896 0.107084 0.1146
H_ H_ 0.623158 0.304047 0.0903177 0.1146
H_ H_ 0.855652 0.0836219 0.0961376 0.1146
H_ H_ 0.883869 0.30076 0.112873 0.1146
H_ H_ 0.583772 0.223454 0.402009 0.42917
H_ H_ 0.582782 0.468987 0.384131 0.42917
H_ H_ 0.836127 0.221467 0.396908 0.42917
H_ H_ 0.823358 0.472379 0.402143 0.42917
H_ H_ 0.6079 0.112547 0.0209837 0.1146
H_ H_ 0.604936 0.372166 0.016816 0.1146
H_ H_ 0.860927 0.112522 0.0223961 0.1146
H_ H_ 0.850622 0.36589 0.0176848 0.1146
H_ H_ 0.726492 0.0460036 0.0486273 0.1146
H_ H_ 0.727731 0.287281 0.0514177 0.1146
H_ H_ 0.977496 0.0434891 0.0497602 0.1146
H_ H_ 0.981138 0.284652 0.0514119 0.1146
H_ H_ 0.75176 0.0196028 0.483634 0.1146
H_ H_ 0.759076 0.267076 0.488283 0.1146
H_ H_ 0.997451 0.0270107 0.478723 0.1146
H_ H_ 0.0005699999999999594 0.270989 0.478008 0.1146
H_ H_ 0.629536 0.133906 0.191982 0.42917
H_ H_ 0.632908 0.386672 0.195179 0.42917
H_ H_ 0.88175 0.139769 0.197263 0.42917
H_ H_ 0.857445 0.362601 0.194865 0.42917
H_ H_ 0.552134 0.123687 0.194152 0.1146
H_ H_ 0.554266 0.379176 0.197169 0.1146
H_ H_ 0.803509 0.127034 0.202695 0.1146
H_ H_ 0.798374 0.377122 0.194922 0.1146
H_ H_ 0.619039 0.189803 0.194919 0.1146
H_ H_ 0.623736 0.444665 0.197967 0.1146
H_ H_ 0.84702 0.186749 0.236328 0.1146
H_ H_ 0.845655 0.432345 0.230832 0.1146
H_ H_ 0.570754 0.182087 0.185235 0.1146
H_ H_ 0.576846 0.438205 0.18533 0.1146
H_ H_ 0.865634 0.188435 0.186532 0.1146
H_ H_ 0.866873 0.441291 0.187006 0.1146
H_ H_ 0.589603 0.182094 0.236436 0.1146
H_ H_ 0.593858 0.435495 0.23631 0.1146
H_ H_ 0.814411 0.18499 0.192148 0.1146
H_ H_ 0.815173 0.428706 0.186716 0.1146
H_ H_ 0.612775 0.0312251 0.374402 0.42917
H_ H_ 0.620351 0.284017 0.377132 0.42917
H_ H_ 0.866285 0.0319235 0.368396 0.42917
H_ H_ 0.87023 0.284581 0.373056 0.42917
H_ H_ 0.494321 0.108094 0.272499 0.1146
H_ H_ 0.497668 0.358765 0.275275 0.1146
H_ H_ 0.758123 0.116353 0.268668 0.1146
H_ H_ 0.750244 0.358898 0.267165 0.1146
H_ H_ 0.5519 0.0351607 0.308378 0.1146
H_ H_ 0.562265 0.292341 0.308998 0.1146
H_ H_ 0.822884 0.0469475 0.301663 0.1146
H_ H_ 0.805059 0.286222 0.298157 0.1146
H_ H_ 0.526632 0.0220892 0.233209 0.1146
H_ H_ 0.526138 0.272969 0.236357 0.1146
H_ H_ 0.783419 0.0255323 0.231661 0.1146
H_ H_ 0.767574 0.26834 0.226729 0.1146
H_ H_ 0.570449 0.180458 0.461882 0.42917
H_ H_ 0.572878 0.446752 0.448102 0.42917
H_ H_ 0.812932 0.176398 0.456038 0.42917
H_ H_ 0.795242 0.41812 0.459915 0.42917
H_ H_ 0.606269 0.145739 0.432904 0.1146
H_ H_ 0.596669 0.398223 0.443911 0.1146
H_ H_ 0.85825 0.147616 0.437473 0.1146
H_ H_ 0.835235 0.383737 0.440112 0.1146
H_ H_ 0.652202 0.207743 0.433983 0.1146
H_ H_ 0.653738 0.456073 0.439343 0.1146
H_ H_ 0.904524 0.212035 0.42931 0.1146
H_ H_ 0.891648 0.421027 0.406678 0.1146
H_ H_ 0.627247 0.18963 0.378729 0.1146
H_ H_ 0.620808 0.444706 0.391892 0.1146
H_ H_ 0.874802 0.190394 0.375381 0.1146
H_ H_ 0.886182 0.445848 0.454772 0.1146
H_ H_ 0.656305 0.173437 0.399527 0.1146
H_ H_ 0.647275 0.419826 0.394257 0.1146
H_ H_ 0.904296 0.174234 0.393726 0.1146
H_ H_ 0.866634 0.444978 0.405904 0.1146
H_ H_ 0.671319 0.0322484 0.110255 0.42917
H_ H_ 0.665769 0.280329 0.103481 0.42917
H_ H_ 0.921423 0.0282406 0.102248 0.42917
H_ H_ 0.924812 0.275022 0.0934572 0.42917
H_ H_ 0.643423 0.141354 0.483133 0.1146
H_ H_ 0.64422 0.388629 0.479147 0.1146
H_ H_ 0.899708 0.138447 0.48402 0.1146
H_ H_ 0.889886 0.38819 0.479605 0.1146
H_ H_ 0.517344 0.216696 0.445767 0.1146
H_ H_ 0.517548 0.457713 0.448747 0.1146
H_ H_ 0.771535 0.209818 0.442824 0.1146
H_ H_ 0.772153 0.465733 0.449867 0.1146
H_ H_ 0.500907 0.226004 0.0199947 0.1146
H_ H_ 0.502987 0.473157 0.0236473 0.1146
H_ H_ 0.745733 0.232401 0.0171482 0.1146
H_ H_ 0.760773 0.473521 0.0262474 0.1146
H_ H_ 0.614415 0.0949254 0.293845 0.42917
H_ H_ 0.634085 0.359702 0.29009 0.42917
H_ H_ 0.882706 0.112748 0.28663 0.42917
H_ H_ 0.890201 0.383106 0.30493 0.42917
H_ H_ 0.693787 0.125372 0.30652 0.1146
H_ H_ 0.700731 0.368878 0.30268 0.1146
H_ H_ 0.951908 0.121973 0.302742 0.1146
H_ H_ 0.94906 0.371477 0.302 0.1146
H_ H_ 0.703347 0.075838 0.313864 0.1146
H_ H_ 0.639414 0.297492 0.302655 0.1146
H_ H_ 0.941254 0.0695169 0.312237 0.1146
H_ H_ 0.883863 0.308017 0.319248 0.1146
H_ H_ 0.663045 0.0629877 0.269488 0.1146
H_ H_ 0.690501 0.313151 0.330222 0.1146
H_ H_ 0.910436 0.0645639 0.267355 0.1146
H_ H_ 0.932487 0.313745 0.310251 0.1146
H_ H_ 0.648694 0.0513044 0.315151 0.1146
H_ H_ 0.679955 0.306607 0.27607 0.1146
H_ H_ 0.888997 0.0557708 0.31615 0.1146
H_ H_ 0.898526 0.311489 0.271495 0.1146
H_ H_ 0.628505 0.213443 0.128001 0.42917
H_ H_ 0.639159 0.467936 0.134844 0.42917
H_ H_ 0.883639 0.211897 0.118213 0.42917
H_ H_ 0.88328 0.464219 0.131286 0.42917
C_ C_ 0.740994 0.158803 0.222811 -0.12085
C_ C_ 0.741048 0.406759 0.219245 -0.12085
C_ C_ 0.989287 0.156438 0.220758 -0.12085
C_ C_ 0.988229 0.402962 0.223867 -0.12085
C_ C_ 0.512957 0.195416 0.302388 0.6956
C_ C_ 0.50849 0.44551 0.302585 0.6956
C_ C_ 0.765913 0.198777 0.302119 0.6956
C_ C_ 0.767949 0.449231 0.295561 0.6956
C_ C_ 0.744401 0.188394 0.257036 -0.16651
C_ C_ 0.745628 0.437504 0.251701 -0.16651
C_ C_ 0.991352 0.18601 0.25291 -0.16651
C_ C_ 0.989717 0.432746 0.256706 -0.16651
C_ C_ 0.702129 0.194653 0.206593 -0.12085
C_ C_ 0.705448 0.445655 0.200237 -0.12085
C_ C_ 0.950043 0.193136 0.2023 -0.12085
C_ C_ 0.949729 0.441277 0.205148 -0.12085
C_ C_ 0.725281 0.152152 0.181099 0.16698
C_ C_ 0.720745 0.398021 0.177577 0.16698
C_ C_ 0.972148 0.14729 0.177953 0.16698
C_ C_ 0.967238 0.392444 0.181569 0.16698
C_ C_ 0.680691 0.121824 0.125909 0.36401
C_ C_ 0.683086 0.372456 0.118692 0.36401
C_ C_ 0.937496 0.120353 0.116602 0.36401
C_ C_ 0.931757 0.36657 0.121726 0.36401
C_ C_ 0.705973 0.171363 0.172836 0.16698
C_ C_ 0.706345 0.418841 0.167964 0.16698
C_ C_ 0.954354 0.16747 0.168346 0.16698
C_ C_ 0.94728 0.411956 0.174582 0.16698
C_ C_ 0.723725 0.205189 0.248734 -0.12085
C_ C_ 0.725212 0.454686 0.240931 -0.12085
C_ C_ 0.974178 0.205035 0.240971 -0.12085
C_ C_ 0.967794 0.449108 0.247242 -0.12085
C_ C_ 0.652858 0.0916874 0.0886251 0.15351
C_ C_ 0.666432 0.347997 0.07386 0.15351
C_ C_ 0.911677 0.091659 0.0768659 0.15351
C_ C_ 0.904585 0.337092 0.0818547 0.15351
C_ C_ 0.617075 0.0657575 0.102379 -0.35079
C_ C_ 0.622041 0.320575 0.0726589 -0.35079
C_ C_ 0.871027 0.0676335 0.0829556 -0.35079
C_ C_ 0.868681 0.3098 0.0932381 -0.35079
C_ C_ 0.577313 0.0996655 0.025914 -0.12085
C_ C_ 0.576991 0.356392 0.0242745 -0.12085
C_ C_ 0.830394 0.0999069 0.0260643 -0.12085
C_ C_ 0.828183 0.347299 0.0261221 -0.12085
C_ C_ 0.568058 0.0564912 0.451969 0.6956
C_ C_ 0.566637 0.305404 0.451661 0.6956
C_ C_ 0.812499 0.0550825 0.444919 0.6956
C_ C_ 0.816486 0.305428 0.450445 0.6956
C_ C_ 0.556866 0.0685244 0.496377 -0.16651
C_ C_ 0.555764 0.316556 0.496425 -0.16651
C_ C_ 0.805114 0.0664289 0.490384 -0.16651
C_ C_ 0.808088 0.315353 0.49504 -0.16651
C_ C_ 0.752522 0.0616807 0.0400918 -0.12085
C_ C_ 0.754791 0.303385 0.0429042 -0.12085
C_ C_ 0.00898798 0.0579652 0.0439683 -0.12085
C_ C_ 0.00547769 0.301761 0.0437605 -0.12085
C_ C_ 0.565763 0.108214 0.0665657 0.16698
C_ C_ 0.569382 0.363865 0.0664121 0.16698
C_ C_ 0.816325 0.110616 0.0667495 0.16698
C_ C_ 0.815926 0.355087 0.0658031 0.16698
C_ C_ 0.56377 0.121697 0.131762 0.36401
C_ C_ 0.565011 0.377511 0.132632 0.36401
C_ C_ 0.811728 0.123712 0.132773 0.36401
C_ C_ 0.813556 0.370377 0.131738 0.36401
C_ C_ 0.528894 0.0864752 0.0736573 0.16698
C_ C_ 0.534433 0.339501 0.0743636 0.16698
C_ C_ 0.779292 0.0911789 0.0730138 0.16698
C_ C_ 0.779081 0.334363 0.0733356 0.16698
C_ C_ 0.519242 0.0477371 0.504948 -0.12085
C_ C_ 0.521666 0.293848 0.507327 -0.12085
C_ C_ 0.77013 0.0453128 0.50373 -0.12085
C_ C_ 0.777545 0.292211 0.508964 -0.12085
C_ C_ 0.577974 0.137446 0.180224 0.15351
C_ C_ 0.580127 0.390211 0.181129 0.15351
C_ C_ 0.826979 0.13825 0.18191 0.15351
C_ C_ 0.824686 0.386936 0.179093 0.15351
C_ C_ 0.589642 0.174769 0.200854 -0.35079
C_ C_ 0.592176 0.427902 0.201919 -0.35079
C_ C_ 0.838116 0.177189 0.200653 -0.35079
C_ C_ 0.840906 0.424851 0.19665 -0.35079
C_ C_ 0.506251 0.0914674 0.280258 -0.12085
C_ C_ 0.509518 0.344271 0.282618 -0.12085
C_ C_ 0.768128 0.0991004 0.276787 -0.12085
C_ C_ 0.762156 0.343315 0.27289 -0.12085
C_ C_ 0.746348 0.0568505 0.19887 0.6956
C_ C_ 0.737133 0.301894 0.194335 0.6956
C_ C_ 0.99061 0.0542181 0.198338 0.6956
C_ C_ 0.985202 0.305031 0.201048 0.6956
C_ C_ 0.503161 0.0601335 0.247288 -0.16651
C_ C_ 0.509721 0.315794 0.25032 -0.16651
C_ C_ 0.761968 0.066628 0.245076 -0.16651
C_ C_ 0.757144 0.312237 0.240276 -0.16651
C_ C_ 0.540138 0.0514602 0.299054 -0.12085
C_ C_ 0.547644 0.305449 0.299925 -0.12085
C_ C_ 0.805111 0.0594281 0.295148 -0.12085
C_ C_ 0.793657 0.303218 0.291654 -0.12085
C_ C_ 0.526682 0.101447 0.320348 0.16698
C_ C_ 0.527873 0.351341 0.323903 0.16698
C_ C_ 0.786232 0.107487 0.318015 0.16698
C_ C_ 0.785771 0.354262 0.311056 0.16698
C_ C_ 0.570048 0.130356 0.376763 0.36401
C_ C_ 0.566098 0.37962 0.383005 0.36401
C_ C_ 0.822582 0.133613 0.378792 0.36401
C_ C_ 0.812791 0.374892 0.377506 0.36401
C_ C_ 0.542369 0.0810611 0.328747 0.16698
C_ C_ 0.546606 0.331937 0.331257 0.16698
C_ C_ 0.802263 0.0867863 0.325854 0.16698
C_ C_ 0.805145 0.335428 0.318135 0.16698
C_ C_ 0.522052 0.0413063 0.258254 -0.12085
C_ C_ 0.524021 0.29355 0.261657 -0.12085
C_ C_ 0.784413 0.0489788 0.25531 -0.12085
C_ C_ 0.771432 0.291989 0.251819 -0.12085
C_ C_ 0.596165 0.158584 0.415908 0.15351
C_ C_ 0.5935 0.410397 0.420827 0.15351
C_ C_ 0.848781 0.161173 0.4173 0.15351
C_ C_ 0.832293 0.400833 0.422318 0.15351
C_ C_ 0.634555 0.184208 0.405781 -0.35079
C_ C_ 0.632441 0.433831 0.411812 -0.35079
C_ C_ 0.884752 0.187631 0.403959 -0.35079
C_ C_ 0.871106 0.42926 0.423062 -0.35079
C_ C_ 0.673019 0.154977 0.475956 -0.12085
C_ C_ 0.675107 0.403829 0.476176 -0.12085
C_ C_ 0.928807 0.153136 0.477948 -0.12085
C_ C_ 0.920237 0.401245 0.474065 -0.12085
C_ C_ 0.680965 0.192488 0.0519652 0.6956
C_ C_ 0.6886 0.445526 0.0507851 0.6956
C_ C_ 0.935774 0.191158 0.0509874 0.6956
C_ C_ 0.931455 0.440259 0.0492554 0.6956
C_ C_ 0.690371 0.183635 0.00703281 -0.16651
C_ C_ 0.700937 0.433331 0.00891418 -0.16651
C_ C_ 0.943483 0.182609 0.00476036 -0.16651
C_ C_ 0.943757 0.430382 0.00520127 -0.16651
C_ C_ 0.489753 0.198372 0.453942 -0.12085
C_ C_ 0.492689 0.439415 0.457074 -0.12085
C_ C_ 0.746631 0.193415 0.454808 -0.12085
C_ C_ 0.745469 0.44665 0.455943 -0.12085
C_ C_ 0.685796 0.140183 0.437056 0.16698
C_ C_ 0.686169 0.393127 0.435044 0.16698
C_ C_ 0.937388 0.145217 0.43394 0.16698
C_ C_ 0.933689 0.391099 0.434346 0.16698
C_ C_ 0.686648 0.123487 0.369182 0.36401
C_ C_ 0.690375 0.372768 0.369872 0.36401
C_ C_ 0.941681 0.128417 0.368969 0.36401
C_ C_ 0.93837 0.375449 0.365847 0.36401
C_ C_ 0.722946 0.160199 0.427011 0.16698
C_ C_ 0.719741 0.415055 0.424481 0.16698
C_ C_ 0.9747 0.166721 0.427149 0.16698
C_ C_ 0.971521 0.410811 0.425739 0.16698
C_ C_ 0.727501 0.20512 0.99628 -0.12085
C_ C_ 0.739074 0.451331 1.00115 -0.12085
C_ C_ 0.982412 0.203342 0.995973 -0.12085
C_ C_ 0.977059 0.453015 0.993886 -0.12085
C_ C_ 0.671329 0.106822 0.321511 0.15351
C_ C_ 0.677694 0.355001 0.320208 0.15351
C_ C_ 0.928629 0.111566 0.320965 0.15351
C_ C_ 0.92313 0.360137 0.318496 0.15351
C_ C_ 0.671328 0.0721663 0.305236 -0.35079
C_ C_ 0.671705 0.317852 0.308279 -0.35079
C_ C_ 0.914785 0.0725763 0.302734 -0.35079
C_ C_ 0.909057 0.3212 0.303436 -0.35079
N_ N_ 0.70831 0.120254 0.152009 -0.51457
N_ N_ 0.706257 0.366973 0.14531 -0.51457
N_ N_ 0.960124 0.116994 0.145515 -0.51457
N_ N_ 0.957359 0.363088 0.148703 -0.51457
N_ N_ 0.679884 0.153676 0.136532 -0.51457
N_ N_ 0.682622 0.404262 0.130906 -0.51457
N_ N_ 0.93176 0.149954 0.130471 -0.51457
N_ N_ 0.928413 0.397619 0.135526 -0.51457
N_ N_ 0.58846 0.131679 0.10272 -0.51457
N_ N_ 0.591423 0.387921 0.10305 -0.51457
N_ N_ 0.839131 0.132526 0.104495 -0.51457
N_ N_ 0.837938 0.381307 0.102319 -0.51457
N_ N_ 0.526721 0.0957617 0.115279 -0.51457
N_ N_ 0.530703 0.34763 0.115042 -0.51457
N_ N_ 0.775823 0.0950393 0.114176 -0.51457
N_ N_ 0.776328 0.343829 0.115288 -0.51457
N_ N_ 0.542832 0.134206 0.351275 -0.51457
N_ N_ 0.540063 0.381948 0.356292 -0.51457
N_ N_ 0.798421 0.137466 0.351373 -0.51457
N_ N_ 0.793036 0.382354 0.347473 -0.51457
N_ N_ 0.569476 0.0979117 0.364857 -0.51457
N_ N_ 0.571088 0.349931 0.368717 -0.51457
N_ N_ 0.823527 0.102302 0.36497 -0.51457
N_ N_ 0.823136 0.347971 0.358641 -0.51457
N_ N_ 0.661073 0.116789 0.400016 -0.51457
N_ N_ 0.663504 0.365934 0.399234 -0.51457
N_ N_ 0.914446 0.120638 0.397096 -0.51457
N_ N_ 0.911214 0.368448 0.395698 -0.51457
N_ N_ 0.723398 0.150978 0.38532 -0.51457
N_ N_ 0.725675 0.400851 0.384782 -0.51457
N_ N_ 0.977611 0.15748 0.386414 -0.51457
N_ N_ 0.974906 0.401204 0.384203 -0.51457
O_ O_ 0.528134 0.229369 0.324724 -0.61362
O_ O_ 0.514881 0.47503 0.329892 -0.61362
O_ O_ 0.770454 0.227818 0.33188 -0.61362
O_ O_ 0.781816 0.48118 0.319638 -0.61362
O_ O_ 0.561758 0.216922 0.385346 -0.98607
O_ O_ 0.558401 0.466295 0.380069 -0.98607
O_ O_ 0.813849 0.216978 0.383121 -0.98607
O_ O_ 0.805188 0.465625 0.381592 -0.98607
O_ O_ 0.519752 0.173407 0.315965 -0.61362
O_ O_ 0.520843 0.425618 0.313996 -0.61362
O_ O_ 0.771229 0.174928 0.313419 -0.61362
O_ O_ 0.770888 0.425489 0.308096 -0.61362
O_ O_ 0.670726 0.074202 0.0663377 -0.55956
O_ O_ 0.688918 0.332774 0.059294 -0.55956
O_ O_ 0.929225 0.0750254 0.0557717 -0.55956
O_ O_ 0.922858 0.321216 0.0578436 -0.55956
O_ O_ 0.545934 0.0261675 0.426302 -0.61362
O_ O_ 0.546461 0.2739 0.425176 -0.61362
O_ O_ 0.789193 0.0220559 0.42077 -0.61362
O_ O_ 0.794929 0.273452 0.425214 -0.61362
O_ O_ 0.592061 0.0360356 0.374915 -0.98607
O_ O_ 0.599153 0.286486 0.376792 -0.98607
O_ O_ 0.846598 0.0371103 0.373969 -0.98607
O_ O_ 0.847864 0.287235 0.374278 -0.98607
O_ O_ 0.594812 0.0811399 0.439312 -0.61362
O_ O_ 0.593738 0.328135 0.438877 -0.61362
O_ O_ 0.836685 0.0770007 0.429244 -0.61362
O_ O_ 0.842002 0.328716 0.436178 -0.61362
O_ O_ 0.605883 0.130217 0.191941 -0.55956
O_ O_ 0.606585 0.381111 0.190361 -0.55956
O_ O_ 0.85636 0.132511 0.190372 -0.55956
O_ O_ 0.851331 0.378632 0.192935 -0.55956
O_ O_ 0.73504 0.0241144 0.174669 -0.61362
O_ O_ 0.725198 0.269128 0.16962 -0.61362
O_ O_ 0.983077 0.023385 0.171876 -0.61362
O_ O_ 0.975418 0.273112 0.176821 -0.61362
O_ O_ 0.692975 0.0354757 0.121859 -0.98607
O_ O_ 0.688083 0.284386 0.116584 -0.98607
O_ O_ 0.9432 0.0340234 0.118075 -0.98607
O_ O_ 0.941678 0.280349 0.114426 -0.98607
O_ O_ 0.732245 0.0761919 0.189496 -0.61362
O_ O_ 0.719634 0.320002 0.185003 -0.61362
O_ O_ 0.979189 0.0745021 0.187996 -0.61362
O_ O_ 0.985108 0.328289 0.186166 -0.61362
O_ O_ 0.578334 0.17563 0.438456 -0.55956
O_ O_ 0.574933 0.427696 0.439781 -0.55956
O_ O_ 0.830435 0.17663 0.439973 -0.55956
O_ O_ 0.81019 0.413465 0.441737 -0.55956
O_ O_ 0.701525 0.222833 0.0797426 -0.61362
O_ O_ 0.706772 0.477651 0.0738024 -0.61362
O_ O_ 0.959941 0.222208 0.0785534 -0.61362
O_ O_ 0.954753 0.469985 0.077142 -0.61362
O_ O_ 0.650421 0.212133 0.127583 -0.98607
O_ O_ 0.660034 0.466025 0.127862 -0.98607
O_ O_ 0.905268 0.211035 0.125032 -0.98607
O_ O_ 0.903985 0.461481 0.127947 -0.98607
O_ O_ 0.654275 0.168543 0.0642997 -0.61362
O_ O_ 0.65644 0.426625 0.0599906 -0.61362
O_ O_ 0.90215 0.172514 0.0630323 -0.61362
O_ O_ 0.905319 0.416359 0.0620492 -0.61362
O_ O_ 0.635686 0.10422 0.312862 -0.55956
O_ O_ 0.644919 0.354577 0.307296 -0.55956
O_ O_ 0.898557 0.115874 0.307831 -0.55956
O_ O_ 0.895788 0.366869 0.306227 -0.55956
Zn Zn 0.523077 0.175892 0.869743 0.91541
Zn Zn 0.525289 0.423394 0.865446 0.91541
Zn Zn 0.769464 0.172478 0.86358 0.91541
Zn Zn 0.778863 0.425429 0.865838 0.91541
Zn Zn 0.601138 0.0818194 0.887054 0.91541
Zn Zn 0.605379 0.332434 0.886953 0.91541
Zn Zn 0.851391 0.0816527 0.88342 0.91541
Zn Zn 0.852119 0.328913 0.885307 0.91541
Zn Zn 0.726603 0.0746942 0.630195 0.91541
Zn Zn 0.730836 0.327559 0.636569 0.91541
Zn Zn 0.970268 0.0757937 0.63562 0.91541
Zn Zn 0.980215 0.325868 0.636179 0.91541
Zn Zn 0.649806 0.169707 0.615184 0.91541
Zn Zn 0.64789 0.420247 0.613837 0.91541
Zn Zn 0.901795 0.172236 0.612119 0.91541
Zn Zn 0.902309 0.420852 0.615821 0.91541
Zn Zn 0.555839 1.00392597 0.875821 1.11764
Zn Zn 0.553533 0.256288 0.875264 1.11764
Zn Zn 0.804539 0.00206656 0.875633 1.11764
Zn Zn 0.802014 0.251165 0.871645 1.11764
Zn Zn 0.697688 0.497678 0.622196 1.11764
Zn Zn 0.706149 0.250197 0.627043 1.11764
Zn Zn 0.95005 0.496839 0.628577 1.11764
Zn Zn 0.952394 0.250845 0.623312 1.11764
H_ H_ 0.751967 0.136299 0.726559 0.1146
H_ H_ 0.736378 0.383442 0.735179 0.1146
H_ H_ -0.010098999999999969 0.136321 0.734155 0.1146
H_ H_ 0.00521774 0.387233 0.728151 0.1146
H_ H_ 0.68778 0.203722 0.690876 0.1146
H_ H_ 0.695462 0.461964 0.689234 0.1146
H_ H_ 0.945072 0.213456 0.691158 0.1146
H_ H_ 0.940662 0.454257 0.694024 0.1146
H_ H_ 0.712691 0.218668 0.765838 0.1146
H_ H_ 0.731228 0.482401 0.765006 0.1146
H_ H_ 0.979007 0.230524 0.767324 0.1146
H_ H_ 0.969629 0.46903 0.770958 0.1146
H_ H_ 0.703472 0.0809142 0.534884 0.42917
H_ H_ 0.68964 0.318825 0.530915 0.42917
H_ H_ 0.944079 0.079385 0.544366 0.42917
H_ H_ 0.932236 0.307537 0.540553 0.42917
H_ H_ 0.656198 0.105268 0.554023 0.1146
H_ H_ 0.656303 0.352797 0.558521 0.1146
H_ H_ 0.895311 0.102286 0.562995 0.1146
H_ H_ 0.904002 0.352897 0.558464 0.1146
H_ H_ 0.638166 0.0508454 0.596461 0.1146
H_ H_ 0.611846 0.294196 0.558605 0.1146
H_ H_ 0.869513 0.0469715 0.609274 0.1146
H_ H_ 0.880455 0.307615 0.619402 0.1146
H_ H_ 0.61018 0.0748237 0.594151 0.1146
H_ H_ 0.637625 0.303429 0.611894 0.1146
H_ H_ 0.85448 0.0818375 0.619614 0.1146
H_ H_ 0.856987 0.331708 0.609811 0.1146
H_ H_ 0.617288 0.0501766 0.542292 0.1146
H_ H_ 0.609884 0.326847 0.60635 0.1146
H_ H_ 0.839702 0.0496518 0.571687 0.1146
H_ H_ 0.854213 0.293527 0.570844 0.1146
H_ H_ 0.576753 0.224909 0.900873 0.42917
H_ H_ 0.586413 0.473969 0.894226 0.42917
H_ H_ 0.82099 0.221469 0.899886 0.42917
H_ H_ 0.836929 0.473468 0.881532 0.42917
H_ H_ 0.608312 0.117228 0.52671 0.1146
H_ H_ 0.609584 0.365586 0.525375 0.1146
H_ H_ 0.860836 0.111942 0.519375 0.1146
H_ H_ 0.863896 0.362636 0.520347 0.1146
H_ H_ 0.736296 0.034559 0.553875 0.1146
H_ H_ 0.738015 0.286459 0.556538 0.1146
H_ H_ 0.97859 0.0424646 0.550467 0.1146
H_ H_ 0.99033 0.282768 0.550759 0.1146
H_ H_ 0.740501 0.0292673 0.974314 0.1146
H_ H_ 0.742945 0.273063 0.973174 0.1146
H_ H_ 0.997541 0.0274671 0.976836 0.1146
H_ H_ -0.002314999999999956 0.270742 0.978843 0.1146
H_ H_ 0.630692 0.132777 0.696021 0.42917
H_ H_ 0.618878 0.390108 0.712766 0.42917
H_ H_ 0.878874 0.131189 0.695651 0.42917
H_ H_ 0.880266 0.386702 0.688467 0.42917
H_ H_ 0.553874 0.120964 0.69683 0.1146
H_ H_ 0.5528 0.381668 0.69737 0.1146
H_ H_ 0.80607 0.127372 0.698418 0.1146
H_ H_ 0.807955 0.382378 0.696118 0.1146
H_ H_ 0.563855 0.177675 0.707662 0.1146
H_ H_ 0.560708 0.438296 0.677452 0.1146
H_ H_ 0.849932 0.191913 0.72762 0.1146
H_ H_ 0.832149 0.445799 0.725724 0.1146
H_ H_ 0.609678 0.182145 0.739789 0.1146
H_ H_ 0.579772 0.44147 0.727063 0.1146
H_ H_ 0.864547 0.192937 0.674945 0.1146
H_ H_ 0.864626 0.446947 0.681846 0.1146
H_ H_ 0.614361 0.190663 0.690608 0.1146
H_ H_ 0.613904 0.451758 0.688372 0.1146
H_ H_ 0.814163 0.180751 0.683512 0.1146
H_ H_ 0.812022 0.433634 0.672955 0.1146
H_ H_ 0.616834 0.0357902 0.875568 0.42917
H_ H_ 0.614411 0.283593 0.868658 0.42917
H_ H_ 0.865805 0.0362989 0.872334 0.42917
H_ H_ 0.864916 0.283023 0.86473 0.42917
H_ H_ 0.49988 0.113859 0.769755 0.1146
H_ H_ 0.495019 0.35891 0.76883 0.1146
H_ H_ 0.738134 0.106436 0.774886 0.1146
H_ H_ 0.753096 0.363264 0.776069 0.1146
H_ H_ 0.55754 0.0424715 0.807303 0.1146
H_ H_ 0.558909 0.28843 0.801502 0.1146
H_ H_ 0.816183 0.0467614 0.803208 0.1146
H_ H_ 0.807716 0.289855 0.810265 0.1146
H_ H_ 0.518119 0.0219855 0.732431 0.1146
H_ H_ 0.525612 0.273645 0.729803 0.1146
H_ H_ 0.783682 0.0297008 0.731018 0.1146
H_ H_ 0.7736 0.272761 0.739247 0.1146
H_ H_ 0.570924 0.190398 0.965439 0.42917
H_ H_ 0.567972 0.43348 0.961434 0.42917
H_ H_ 0.820562 0.185119 0.970763 0.42917
H_ H_ 0.82838 0.437131 0.970965 0.42917
H_ H_ 0.600318 0.14733 0.935142 0.1146
H_ H_ 0.594437 0.393259 0.93759 0.1146
H_ H_ 0.846164 0.145584 0.937221 0.1146
H_ H_ 0.859755 0.398135 0.943387 0.1146
H_ H_ 0.622845 0.210611 0.90974 0.1146
H_ H_ 0.645444 0.416288 0.88746 0.1146
H_ H_ 0.895598 0.20642 0.943041 0.1146
H_ H_ 0.895638 0.417816 0.879611 0.1146
H_ H_ 0.638889 0.178996 0.880745 0.1146
H_ H_ 0.658206 0.447747 0.934961 0.1146
H_ H_ 0.866077 0.196446 0.890631 0.1146
H_ H_ 0.906654 0.44713 0.930142 0.1146
H_ H_ 0.654641 0.200039 0.935783 0.1146
H_ H_ 0.626357 0.445372 0.888422 0.1146
H_ H_ 0.89366 0.171753 0.895055 0.1146
H_ H_ 0.874173 0.446854 0.888704 0.1146
H_ H_ 0.678446 0.0250779 0.589105 0.42917
H_ H_ 0.677721 0.277352 0.60521 0.42917
H_ H_ 0.920563 0.0276205 0.59787 0.42917
H_ H_ 0.933123 0.279527 0.588852 0.42917
H_ H_ 0.638516 0.139122 0.980868 0.1146
H_ H_ 0.644483 0.391446 0.978393 0.1146
H_ H_ 0.88798 0.138442 0.978926 0.1146
H_ H_ 0.91014 0.377238 0.988854 0.1146
H_ H_ 0.513592 0.209788 0.947466 0.1146
H_ H_ 0.519282 0.462376 0.949636 0.1146
H_ H_ 0.766564 0.214993 0.952366 0.1146
H_ H_ 0.775297 0.459411 0.953976 0.1146
H_ H_ 0.49786 0.233612 0.516978 0.1146
H_ H_ 0.497815 0.47405 0.520227 0.1146
H_ H_ 0.756892 0.224692 0.521499 0.1146
H_ H_ 0.760292 0.474041 0.520508 0.1146
H_ H_ 0.621891 0.123029 0.7938 0.42917
H_ H_ 0.618227 0.349723 0.795275 0.42917
H_ H_ 0.878781 0.127632 0.805775 0.42917
H_ H_ 0.88295 0.365616 0.785394 0.42917
H_ H_ 0.692803 0.132789 0.806321 0.1146
H_ H_ 0.70131 0.375254 0.803934 0.1146
H_ H_ 0.948208 0.126713 0.801975 0.1146
H_ H_ 0.947526 0.371346 0.803927 0.1146
H_ H_ 0.647345 0.0693588 0.770733 0.1146
H_ H_ 0.672186 0.318266 0.7729 0.1146
H_ H_ 0.939611 0.0715102 0.805294 0.1146
H_ H_ 0.93286 0.312024 0.821765 0.1146
H_ H_ 0.633396 0.0650916 0.818648 0.1146
H_ H_ 0.645009 0.307722 0.813954 0.1146
H_ H_ 0.908633 0.0680044 0.76304 0.1146
H_ H_ 0.91707 0.309531 0.770459 0.1146
H_ H_ 0.687315 0.0773356 0.81192 0.1146
H_ H_ 0.695545 0.320905 0.820175 0.1146
H_ H_ 0.884143 0.0580112 0.807333 0.1146
H_ H_ 0.881349 0.304712 0.806652 0.1146
H_ H_ 0.64271 0.219184 0.634572 0.42917
H_ H_ 0.63718 0.46927 0.637308 0.42917
H_ H_ 0.88722 0.219584 0.625816 0.42917
H_ H_ 0.886856 0.467628 0.625222 0.42917
C_ C_ 0.741466 0.153839 0.719255 -0.12085
C_ C_ 0.732771 0.402416 0.724473 -0.12085
C_ C_ 0.981265 0.153035 0.724819 -0.12085
C_ C_ 0.99696 0.404527 0.720142 -0.12085
C_ C_ 0.507283 0.199304 0.805042 0.6956
C_ C_ 0.517237 0.448411 0.802909 0.6956
C_ C_ 0.764941 0.198448 0.795499 0.6956
C_ C_ 0.760608 0.447871 0.800682 0.6956
C_ C_ 0.742416 0.184008 0.752292 -0.16651
C_ C_ 0.737883 0.434871 0.755799 -0.16651
C_ C_ 0.991444 0.185821 0.754407 -0.16651
C_ C_ 0.996046 0.433058 0.753714 -0.16651
C_ C_ 0.703847 0.19152 0.700216 -0.12085
C_ C_ 0.705274 0.445358 0.700566 -0.12085
C_ C_ 0.961971 0.199903 0.698223 -0.12085
C_ C_ 0.957274 0.441564 0.70068 -0.12085
C_ C_ 0.726227 0.147205 0.676044 0.16698
C_ C_ 0.72269 0.396438 0.680707 0.16698
C_ C_ 0.968657 0.145648 0.680155 0.16698
C_ C_ 0.97893 0.396476 0.67665 0.16698
C_ C_ 0.688468 0.120885 0.617527 0.36401
C_ C_ 0.686959 0.369782 0.619677 0.36401
C_ C_ 0.930899 0.119164 0.621142 0.36401
C_ C_ 0.939199 0.368127 0.617878 0.36401
C_ C_ 0.711399 0.168842 0.667554 0.16698
C_ C_ 0.707744 0.41741 0.669325 0.16698
C_ C_ 0.957423 0.167586 0.66806 0.16698
C_ C_ 0.962811 0.417201 0.66693 0.16698
C_ C_ 0.72184 0.201571 0.74105 -0.12085
C_ C_ 0.725499 0.456428 0.742749 -0.12085
C_ C_ 0.977319 0.207697 0.742082 -0.12085
C_ C_ 0.974985 0.450511 0.743814 -0.12085
C_ C_ 0.665824 0.0935622 0.57501 0.15351
C_ C_ 0.665415 0.342029 0.577923 0.15351
C_ C_ 0.905946 0.0908362 0.583203 0.15351
C_ C_ 0.910908 0.339324 0.579523 0.15351
C_ C_ 0.629781 0.0641632 0.576987 -0.35079
C_ C_ 0.630081 0.314796 0.590145 -0.35079
C_ C_ 0.866752 0.0656448 0.59506 -0.35079
C_ C_ 0.87378 0.316846 0.595374 -0.35079
C_ C_ 0.579851 0.100023 0.529408 -0.12085
C_ C_ 0.580063 0.3489 0.527458 -0.12085
C_ C_ 0.832614 0.0978657 0.524491 -0.12085
C_ C_ 0.834023 0.347759 0.526185 -0.12085
C_ C_ 0.563275 0.0592567 0.95019 0.6956
C_ C_ 0.563819 0.313189 0.950246 0.6956
C_ C_ 0.813739 0.0595852 0.947357 0.6956
C_ C_ 0.813867 0.307641 0.946774 0.6956
C_ C_ 0.551426 0.068831 0.993433 -0.16651
C_ C_ 0.55092 0.32411 0.99241 -0.16651
C_ C_ 0.801684 0.0715966 0.991118 -0.16651
C_ C_ 0.801587 0.31935 0.991216 -0.16651
C_ C_ 0.761342 0.054539 0.544781 -0.12085
C_ C_ 0.765367 0.304315 0.549045 -0.12085
C_ C_ 0.00608512 0.0583579 0.545194 -0.12085
C_ C_ 0.0114076 0.303854 0.542635 -0.12085
C_ C_ 0.567024 0.107054 0.567242 0.16698
C_ C_ 0.566357 0.359955 0.566418 0.16698
C_ C_ 0.821102 0.107001 0.565391 0.16698
C_ C_ 0.821036 0.357802 0.564628 0.16698
C_ C_ 0.563747 0.123949 0.634661 0.36401
C_ C_ 0.567359 0.378094 0.634457 0.36401
C_ C_ 0.818717 0.123846 0.632255 0.36401
C_ C_ 0.819676 0.376161 0.633498 0.36401
C_ C_ 0.529096 0.0868686 0.574168 0.16698
C_ C_ 0.529567 0.338548 0.575495 0.16698
C_ C_ 0.785445 0.0854851 0.573913 0.16698
C_ C_ 0.786792 0.336413 0.575694 0.16698
C_ C_ 0.517992 0.0448962 0.00412746 -0.12085
C_ C_ 0.515595 0.302423 0.00468746 -0.12085
C_ C_ 0.763507 0.0523751 -0.00150316 -0.12085
C_ C_ 0.764413 0.297527 0.0001100000000000545 -0.12085
C_ C_ 0.579398 0.135816 0.68398 0.15351
C_ C_ 0.578588 0.396733 0.681005 0.15351
C_ C_ 0.831284 0.140457 0.680381 0.15351
C_ C_ 0.830926 0.396114 0.680171 0.15351
C_ C_ 0.592554 0.174264 0.706028 -0.35079
C_ C_ 0.584097 0.433685 0.693193 -0.35079
C_ C_ 0.841278 0.178057 0.692623 -0.35079
C_ C_ 0.835806 0.433011 0.691986 -0.35079
C_ C_ 0.506788 0.0965322 0.779585 -0.12085
C_ C_ 0.506285 0.342404 0.777354 -0.12085
C_ C_ 0.756731 0.0950805 0.779565 -0.12085
C_ C_ 0.762662 0.346348 0.782441 -0.12085
C_ C_ 0.73651 0.0535093 0.699232 0.6956
C_ C_ 0.740494 0.304235 0.704715 0.6956
C_ C_ 0.989611 0.0523923 0.696246 0.6956
C_ C_ 0.985539 0.300864 0.700781 0.6956
C_ C_ 0.502008 0.064499 0.748788 -0.16651
C_ C_ 0.501405 0.310995 0.744948 -0.16651
C_ C_ 0.758883 0.0682208 0.744121 -0.16651
C_ C_ 0.759084 0.315603 0.750322 -0.16651
C_ C_ 0.541379 0.0567553 0.800042 -0.12085
C_ C_ 0.542512 0.302677 0.796988 -0.12085
C_ C_ 0.80199 0.0614149 0.795618 -0.12085
C_ C_ 0.793457 0.304326 0.802571 -0.12085
C_ C_ 0.527172 0.107106 0.822486 0.16698
C_ C_ 0.525436 0.351132 0.819326 0.16698
C_ C_ 0.776773 0.104442 0.820105 0.16698
C_ C_ 0.778643 0.354235 0.824707 0.16698
C_ C_ 0.561019 0.130439 0.882733 0.36401
C_ C_ 0.563014 0.377809 0.877789 0.36401
C_ C_ 0.811693 0.130942 0.881108 0.36401
C_ C_ 0.817973 0.381518 0.885061 0.36401
C_ C_ 0.543797 0.0874326 0.829978 0.16698
C_ C_ 0.543178 0.331453 0.828445 0.16698
C_ C_ 0.795058 0.0854713 0.828443 0.16698
C_ C_ 0.793565 0.333703 0.83412 0.16698
C_ C_ 0.520246 0.0446823 0.758897 -0.12085
C_ C_ 0.522655 0.292644 0.756141 -0.12085
C_ C_ 0.780878 0.0506547 0.755027 -0.12085
C_ C_ 0.773349 0.294829 0.762389 -0.12085
C_ C_ 0.590525 0.161792 0.91927 0.15351
C_ C_ 0.590618 0.406705 0.916568 0.15351
C_ C_ 0.837681 0.159555 0.920491 0.15351
C_ C_ 0.846863 0.409702 0.922327 0.15351
C_ C_ 0.629332 0.188973 0.910335 -0.35079
C_ C_ 0.631838 0.431299 0.908567 -0.35079
C_ C_ 0.876206 0.186684 0.91256 -0.35079
C_ C_ 0.881412 0.430349 0.904092 -0.35079
C_ C_ 0.667313 0.152524 0.974835 -0.12085
C_ C_ 0.674277 0.40411 0.976137 -0.12085
C_ C_ 0.918075 0.15151 0.972181 -0.12085
C_ C_ 0.922311 0.39648 0.974427 -0.12085
C_ C_ 0.692578 0.197806 0.551225 0.6956
C_ C_ 0.686258 0.445097 0.551112 0.6956
C_ C_ 0.942404 0.19404 0.55251 0.6956
C_ C_ 0.939495 0.440708 0.551875 0.6956
C_ C_ 0.70176 0.183736 0.507077 -0.16651
C_ C_ 0.699154 0.433859 0.507609 -0.16651
C_ C_ 0.954483 0.182965 0.508928 -0.16651
C_ C_ 0.947164 0.4319 0.505786 -0.16651
C_ C_ 0.492484 0.190142 0.95845 -0.12085
C_ C_ 0.493854 0.442264 0.957258 -0.12085
C_ C_ 0.740413 0.194009 0.957334 -0.12085
C_ C_ 0.748658 0.443065 0.959009 -0.12085
C_ C_ 0.681104 0.143962 0.935926 0.16698
C_ C_ 0.68702 0.390918 0.93624 0.16698
C_ C_ 0.93073 0.14343 0.931314 0.16698
C_ C_ 0.933702 0.388693 0.93197 0.16698
C_ C_ 0.681241 0.130402 0.867989 0.36401
C_ C_ 0.68758 0.378261 0.869207 0.36401
C_ C_ 0.934573 0.12753 0.864456 0.36401
C_ C_ 0.933122 0.374692 0.865787 0.36401
C_ C_ 0.717029 0.163438 0.926334 0.16698
C_ C_ 0.724752 0.412338 0.928632 0.16698
C_ C_ 0.967146 0.163661 0.924255 0.16698
C_ C_ 0.968803 0.411948 0.922073 0.16698
C_ C_ 0.739732 0.201562 0.498299 -0.12085
C_ C_ 0.734443 0.455057 0.497474 -0.12085
C_ C_ 0.99393 0.202824 0.501199 -0.12085
C_ C_ 0.985137 0.450867 0.497249 -0.12085
C_ C_ 0.668055 0.118197 0.821224 0.15351
C_ C_ 0.67614 0.362297 0.821013 0.15351
C_ C_ 0.922473 0.112123 0.816928 0.15351
C_ C_ 0.920358 0.35619 0.818698 0.15351
C_ C_ 0.659896 0.080769 0.805072 -0.35079
C_ C_ 0.672428 0.326044 0.806766 -0.35079
C_ C_ 0.913485 0.0742859 0.798515 -0.35079
C_ C_ 0.912506 0.318458 0.805276 -0.35079
N_ N_ 0.713592 0.116927 0.642613 -0.51457
N_ N_ 0.709115 0.36542 0.648782 -0.51457
N_ N_ 0.952071 0.113606 0.650362 -0.51457
N_ N_ 0.965338 0.365641 0.645318 -0.51457
N_ N_ 0.686562 0.152712 0.630706 -0.51457
N_ N_ 0.683331 0.400736 0.632661 -0.51457
N_ N_ 0.933736 0.151692 0.630118 -0.51457
N_ N_ 0.937629 0.39935 0.631144 -0.51457
N_ N_ 0.590014 0.132398 0.60552 -0.51457
N_ N_ 0.590161 0.386161 0.603237 -0.51457
N_ N_ 0.844428 0.132257 0.601664 -0.51457
N_ N_ 0.844085 0.384562 0.603844 -0.51457
N_ N_ 0.526197 0.0970144 0.618292 -0.51457
N_ N_ 0.530644 0.348664 0.618025 -0.51457
N_ N_ 0.782784 0.0952159 0.615607 -0.51457
N_ N_ 0.785111 0.347661 0.618081 -0.51457
N_ N_ 0.53891 0.13635 0.856155 -0.51457
N_ N_ 0.538056 0.381763 0.851825 -0.51457
N_ N_ 0.789999 0.134715 0.851388 -0.51457
N_ N_ 0.794713 0.385222 0.856584 -0.51457
N_ N_ 0.567077 0.101664 0.867829 -0.51457
N_ N_ 0.568505 0.348623 0.864536 -0.51457
N_ N_ 0.813824 0.0992754 0.868195 -0.51457
N_ N_ 0.817591 0.34974 0.871305 -0.51457
N_ N_ 0.657261 0.121262 0.897138 -0.51457
N_ N_ 0.663811 0.3691 0.899243 -0.51457
N_ N_ 0.908645 0.119741 0.892729 -0.51457
N_ N_ 0.909635 0.363611 0.896309 -0.51457
N_ N_ 0.71757 0.156891 0.884068 -0.51457
N_ N_ 0.724789 0.404985 0.885595 -0.51457
N_ N_ 0.970191 0.156333 0.882455 -0.51457
N_ N_ 0.968677 0.403668 0.880876 -0.51457
O_ O_ 0.518543 0.231639 0.827712 -0.61362
O_ O_ 0.522171 0.478324 0.831378 -0.61362
O_ O_ 0.77312 0.228897 0.820187 -0.61362
O_ O_ 0.769443 0.478859 0.826572 -0.61362
O_ O_ 0.553867 0.220313 0.885871 -0.98607
O_ O_ 0.562478 0.468277 0.88468 -0.98607
O_ O_ 0.800204 0.216232 0.882325 -0.98607
O_ O_ 0.812611 0.468538 0.878973 -0.98607
O_ O_ 0.523076 0.18212 0.818915 -0.61362
O_ O_ 0.525595 0.426921 0.81315 -0.61362
O_ O_ 0.770129 0.177031 0.811958 -0.61362
O_ O_ 0.769858 0.427224 0.813262 -0.61362
O_ O_ 0.687931 0.081471 0.553978 -0.55956
O_ O_ 0.684539 0.326338 0.556327 -0.55956
O_ O_ 0.924459 0.0747175 0.560426 -0.55956
O_ O_ 0.925876 0.319092 0.562308 -0.55956
O_ O_ 0.540369 0.0301741 0.920006 -0.61362
O_ O_ 0.54554 0.281482 0.924052 -0.61362
O_ O_ 0.792838 0.0277246 0.923207 -0.61362
O_ O_ 0.791014 0.276285 0.919208 -0.61362
O_ O_ 0.59555 0.0372927 0.871994 -0.98607
O_ O_ 0.594869 0.288662 0.871328 -0.98607
O_ O_ 0.844737 0.0389466 0.87592 -0.98607
O_ O_ 0.844254 0.285874 0.86822 -0.98607
O_ O_ 0.594172 0.0815602 0.938822 -0.61362
O_ O_ 0.591378 0.337986 0.938149 -0.61362
O_ O_ 0.846422 0.0789474 0.936506 -0.61362
O_ O_ 0.847464 0.325702 0.937377 -0.61362
O_ O_ 0.606133 0.127589 0.694509 -0.55956
O_ O_ 0.608891 0.394487 0.692057 -0.55956
O_ O_ 0.865076 0.1405 0.688647 -0.55956
O_ O_ 0.862289 0.394896 0.694697 -0.55956
O_ O_ 0.732833 0.0238939 0.673822 -0.61362
O_ O_ 0.736832 0.274697 0.678217 -0.61362
O_ O_ 0.974323 0.0202948 0.671265 -0.61362
O_ O_ 0.983551 0.272475 0.672225 -0.61362
O_ O_ 0.694988 0.0308443 0.610894 -0.98607
O_ O_ 0.699994 0.282781 0.619201 -0.98607
O_ O_ 0.939797 0.0312896 0.616528 -0.98607
O_ O_ 0.948082 0.284555 0.612203 -0.98607
O_ O_ 0.728407 0.0742021 0.684335 -0.61362
O_ O_ 0.737024 0.328235 0.691158 -0.61362
O_ O_ 0.980767 0.0742688 0.686319 -0.61362
O_ O_ 0.978531 0.323432 0.68851 -0.61362
O_ O_ 0.570368 0.177318 0.941556 -0.55956
O_ O_ 0.575165 0.426398 0.936641 -0.55956
O_ O_ 0.819652 0.17504 0.944244 -0.55956
O_ O_ 0.833018 0.430098 0.945048 -0.55956
O_ O_ 0.7183 0.22706 0.57789 -0.61362
O_ O_ 0.710955 0.472908 0.580197 -0.61362
O_ O_ 0.96707 0.222284 0.584354 -0.61362
O_ O_ 0.959986 0.471674 0.579906 -0.61362
O_ O_ 0.662903 0.215079 0.630197 -0.98607
O_ O_ 0.65371 0.46294 0.627464 -0.98607
O_ O_ 0.907368 0.215778 0.623977 -0.98607
O_ O_ 0.905455 0.462223 0.625308 -0.98607
O_ O_ 0.660703 0.176837 0.563943 -0.61362
O_ O_ 0.656179 0.423142 0.561842 -0.61362
O_ O_ 0.913363 0.169947 0.562388 -0.61362
O_ O_ 0.907893 0.418125 0.561952 -0.61362
O_ O_ 0.635504 0.118139 0.81013 -0.55956
O_ O_ 0.64302 0.359756 0.808708 -0.55956
O_ O_ 0.890514 0.11448 0.80745 -0.55956
O_ O_ 0.89038 0.359104 0.804943 -0.55956
Zn Zn 0.523141 0.671755 0.366572 0.91541
Zn Zn 0.526125 0.925522 0.366101 0.91541
Zn Zn 0.771194 0.671245 0.360537 0.91541
Zn Zn 0.77536 0.92406 0.365308 0.91541
Zn Zn 0.60224 0.578145 0.386962 0.91541
Zn Zn 0.606176 0.831834 0.388442 0.91541
Zn Zn 0.855685 0.582245 0.382242 0.91541
Zn Zn 0.857353 0.830304 0.384148 0.91541
Zn Zn 0.721918 0.575469 0.134979 0.91541
Zn Zn 0.727763 0.827998 0.141303 0.91541
Zn Zn 0.975763 0.575212 0.137308 0.91541
Zn Zn 0.973306 0.826018 0.135852 0.91541
Zn Zn 0.64433 0.67193 0.116743 0.91541
Zn Zn 0.645393 0.920361 0.118044 0.91541
Zn Zn 0.895824 0.667575 0.110377 0.91541
Zn Zn 0.897135 0.923466 0.115419 0.91541
Zn Zn 0.550175 0.500138 0.374551 1.11764
Zn Zn 0.552335 0.752191 0.37357 1.11764
Zn Zn 0.807444 0.502325 0.372853 1.11764
Zn Zn 0.803548 0.751315 0.373618 1.11764
Zn Zn 0.696741 1.00045 0.129158 1.11764
Zn Zn 0.697207 0.750189 0.126025 1.11764
Zn Zn 0.948597 1.000221108 0.12674 1.11764
Zn Zn 0.947801 0.747399 0.123774 1.11764
H_ H_ 0.751971 0.6381 0.2282 0.1146
H_ H_ 0.753313 0.893522 0.235472 0.1146
H_ H_ -0.0011360000000000259 0.639252 0.227885 0.1146
H_ H_ -0.0135915 0.884735 0.232185 0.1146
H_ H_ 0.691829 0.712332 0.200616 0.1146
H_ H_ 0.694962 0.962346 0.191736 0.1146
H_ H_ 0.950789 0.713376 0.186112 0.1146
H_ H_ 0.950959 0.963806 0.186839 0.1146
H_ H_ 0.727604 0.726442 0.272433 0.1146
H_ H_ 0.726264 0.979818 0.268946 0.1146
H_ H_ 0.983103 0.728378 0.258635 0.1146
H_ H_ 0.975402 0.978845 0.265939 0.1146
H_ H_ 0.68825 0.577331 0.0354654 0.42917
H_ H_ 0.681056 0.815725 0.0449936 0.42917
H_ H_ 0.91659 0.561304 0.0341835 0.42917
H_ H_ 0.941872 0.83005 0.0307565 0.42917
H_ H_ 0.644575 0.606057 0.0623682 0.1146
H_ H_ 0.647161 0.848002 0.0669469 0.1146
H_ H_ 0.892542 0.597149 0.0666113 0.1146
H_ H_ 0.899445 0.857209 0.0601893 0.1146
H_ H_ 0.627537 0.546567 0.0968532 0.1146
H_ H_ 0.600761 0.825135 0.114926 0.1146
H_ H_ 0.846429 0.577296 0.115405 0.1146
H_ H_ 0.857182 0.800204 0.0474202 0.1146
H_ H_ 0.601774 0.575385 0.108915 0.1146
H_ H_ 0.601325 0.788188 0.0726979 0.1146
H_ H_ 0.842988 0.542812 0.0687996 0.1146
H_ H_ 0.881872 0.795091 0.0890432 0.1146
H_ H_ 0.601687 0.548705 0.0525576 0.1146
H_ H_ 0.62798 0.80648 0.131959 0.1146
H_ H_ 0.87548 0.553952 0.121654 0.1146
H_ H_ 0.857727 0.822514 0.103281 0.1146
H_ H_ 0.575308 0.723304 0.398993 0.42917
H_ H_ 0.58023 0.976868 0.394972 0.42917
H_ H_ 0.821666 0.720832 0.400465 0.42917
H_ H_ 0.821915 0.973883 0.402214 0.42917
H_ H_ 0.601366 0.613061 0.0222302 0.1146
H_ H_ 0.612899 0.863842 0.0212223 0.1146
H_ H_ 0.84328 0.621454 0.0114522 0.1146
H_ H_ 0.858715 0.866744 0.0233323 0.1146
H_ H_ 0.725406 0.541332 0.0548222 0.1146
H_ H_ 0.726555 0.796823 0.0514448 0.1146
H_ H_ 0.98075 0.535177 0.0530182 0.1146
H_ H_ 0.974577 0.790666 0.0489421 0.1146
H_ H_ 0.750521 0.524416 0.480731 0.1146
H_ H_ 0.751963 0.774324 0.479622 0.1146
H_ H_ 0.99941012 0.514346 0.481344 0.1146
H_ H_ -0.00560566 0.771389 0.480035 0.1146
H_ H_ 0.621579 0.633129 0.185312 0.42917
H_ H_ 0.615915 0.890603 0.219927 0.42917
H_ H_ 0.878342 0.636701 0.198554 0.42917
H_ H_ 0.862497 0.855574 0.184689 0.42917
H_ H_ 0.55108 0.631683 0.200406 0.1146
H_ H_ 0.545785 0.879046 0.192384 0.1146
H_ H_ 0.798387 0.626783 0.194517 0.1146
H_ H_ 0.807275 0.875213 0.194694 0.1146
H_ H_ 0.611161 0.696613 0.186979 0.1146
H_ H_ 0.582293 0.939931 0.224634 0.1146
H_ H_ 0.817219 0.686292 0.193702 0.1146
H_ H_ 0.831417 0.932714 0.219811 0.1146
H_ H_ 0.55907 0.687383 0.194178 0.1146
H_ H_ 0.618625 0.943531 0.188566 0.1146
H_ H_ 0.840722 0.682061 0.236389 0.1146
H_ H_ 0.870548 0.923746 0.239074 0.1146
H_ H_ 0.594152 0.69188 0.231633 0.1146
H_ H_ 0.566207 0.932258 0.170246 0.1146
H_ H_ 0.866896 0.693058 0.196902 0.1146
H_ H_ 0.877405 0.941507 0.195415 0.1146
H_ H_ 0.612928 0.530022 0.355853 0.42917
H_ H_ 0.610891 0.781055 0.365702 0.42917
H_ H_ 0.868716 0.536689 0.35852 0.42917
H_ H_ 0.864695 0.780813 0.358827 0.42917
H_ H_ 0.492952 0.60784 0.276315 0.1146
H_ H_ 0.497512 0.863207 0.275322 0.1146
H_ H_ 0.747269 0.610564 0.270285 0.1146
H_ H_ 0.744352 0.860328 0.275968 0.1146
H_ H_ 0.542683 0.533712 0.313939 0.1146
H_ H_ 0.554384 0.789113 0.310353 0.1146
H_ H_ 0.80549 0.538563 0.306238 0.1146
H_ H_ 0.81031 0.79359 0.309118 0.1146
H_ H_ 0.512238 0.515592 0.237313 0.1146
H_ H_ 0.521119 0.772645 0.235868 0.1146
H_ H_ 0.772026 0.520504 0.229884 0.1146
H_ H_ 0.768211 0.771397 0.239593 0.1146
H_ H_ 0.551051 0.66128 0.467971 0.42917
H_ H_ 0.554624 0.917348 0.461311 0.42917
H_ H_ 0.813096 0.686133 0.459681 0.42917
H_ H_ 0.822094 0.930619 0.462836 0.42917
H_ H_ 0.596029 0.639576 0.441625 0.1146
H_ H_ 0.601198 0.897497 0.445448 0.1146
H_ H_ 0.847893 0.648745 0.438441 0.1146
H_ H_ 0.859545 0.903143 0.432989 0.1146
H_ H_ 0.651309 0.67978 0.407821 0.1146
H_ H_ 0.645264 0.950243 0.457021 0.1146
H_ H_ 0.891958 0.708628 0.440758 0.1146
H_ H_ 0.899905 0.92477 0.379996 0.1146
H_ H_ 0.635542 0.702798 0.450743 0.1146
H_ H_ 0.630404 0.961928 0.415694 0.1146
H_ H_ 0.869179 0.698059 0.3867 0.1146
H_ H_ 0.900696 0.961104 0.421825 0.1146
H_ H_ 0.614574 0.693508 0.396133 0.1146
H_ H_ 0.649062 0.933327 0.399164 0.1146
H_ H_ 0.9023 0.681922 0.398447 0.1146
H_ H_ 0.871459 0.943233 0.371766 0.1146
H_ H_ 0.664235 0.52162 0.103801 0.42917
H_ H_ 0.670244 0.782149 0.109393 0.42917
H_ H_ 0.923906 0.526396 0.0933713 0.42917
H_ H_ 0.923759 0.774739 0.0942413 0.42917
H_ H_ 0.644928 0.635897 0.486015 0.1146
H_ H_ 0.645899 0.884172 0.48052 0.1146
H_ H_ 0.887503 0.639676 0.473251 0.1146
H_ H_ 0.894118 0.893757 0.479227 0.1146
H_ H_ 0.525033 0.704231 0.449852 0.1146
H_ H_ 0.515512 0.967219 0.446977 0.1146
H_ H_ 0.765248 0.70918 0.443467 0.1146
H_ H_ 0.774366 0.959858 0.447784 0.1146
H_ H_ 0.49637 0.730186 0.0211456 0.1146
H_ H_ 0.499904 0.977244 0.020664 0.1146
H_ H_ 0.735046 0.733532 0.0106288 0.1146
H_ H_ 0.744641 0.980793 0.0204293 0.1146
H_ H_ 0.619997 0.624678 0.307695 0.42917
H_ H_ 0.62932 0.874394 0.316801 0.42917
H_ H_ 0.869781 0.615316 0.303859 0.42917
H_ H_ 0.876343 0.859364 0.292668 0.42917
H_ H_ 0.692859 0.627905 0.305657 0.1146
H_ H_ 0.705222 0.877706 0.306659 0.1146
H_ H_ 0.947321 0.630878 0.303716 0.1146
H_ H_ 0.951496 0.875578 0.310369 0.1146
H_ H_ 0.675459 0.569278 0.292541 0.1146
H_ H_ 0.668596 0.818836 0.270173 0.1146
H_ H_ 0.881374 0.561582 0.296248 0.1146
H_ H_ 0.917414 0.814256 0.270891 0.1146
H_ H_ 0.6383 0.570252 0.262154 0.1146
H_ H_ 0.63885 0.812461 0.310352 0.1146
H_ H_ 0.932718 0.569209 0.298304 0.1146
H_ H_ 0.88264 0.808983 0.305958 0.1146
H_ H_ 0.62808 0.562269 0.312056 0.1146
H_ H_ 0.690394 0.818002 0.316103 0.1146
H_ H_ 0.90742 0.576796 0.258529 0.1146
H_ H_ 0.936655 0.816063 0.31989 0.1146
H_ H_ 0.634281 0.718679 0.127241 0.42917
H_ H_ 0.634763 0.969726 0.139962 0.42917
H_ H_ 0.890873 0.717956 0.144256 0.42917
H_ H_ 0.886503 0.972733 0.133262 0.42917
C_ C_ 0.737326 0.653018 0.221493 -0.12085
C_ C_ 0.738951 0.907586 0.227406 -0.12085
C_ C_ 0.990834 0.655365 0.216981 -0.12085
C_ C_ 0.988151 0.90502 0.220898 -0.12085
C_ C_ 0.514559 0.697561 0.300658 0.6956
C_ C_ 0.515525 0.948516 0.297782 0.6956
C_ C_ 0.769349 0.698369 0.297221 0.6956
C_ C_ 0.762469 0.95105 0.300644 0.6956
C_ C_ 0.744814 0.68568 0.253875 -0.16651
C_ C_ 0.743549 0.939987 0.257048 -0.16651
C_ C_ 0.999252 0.688013 0.246937 -0.16651
C_ C_ 0.993567 0.936416 0.25435 -0.16651
C_ C_ 0.700966 0.694436 0.207547 -0.12085
C_ C_ 0.707107 0.947542 0.202601 -0.12085
C_ C_ 0.963608 0.698061 0.193544 -0.12085
C_ C_ 0.958154 0.946572 0.200776 -0.12085
C_ C_ 0.711901 0.642362 0.183784 0.16698
C_ C_ 0.717147 0.895728 0.187373 0.16698
C_ C_ 0.974859 0.646086 0.175239 0.16698
C_ C_ 0.970189 0.896532 0.178052 0.16698
C_ C_ 0.68039 0.620421 0.120688 0.36401
C_ C_ 0.684077 0.868906 0.124786 0.36401
C_ C_ 0.931293 0.616138 0.118823 0.36401
C_ C_ 0.934903 0.871177 0.119231 0.36401
C_ C_ 0.696533 0.664193 0.176641 0.16698
C_ C_ 0.69909 0.91401 0.178097 0.16698
C_ C_ 0.959699 0.665992 0.164029 0.16698
C_ C_ 0.953017 0.916117 0.172175 0.16698
C_ C_ 0.724971 0.704382 0.2464 -0.12085
C_ C_ 0.72718 0.95908 0.24516 -0.12085
C_ C_ 0.986701 0.709375 0.234327 -0.12085
C_ C_ 0.977817 0.958469 0.242785 -0.12085
C_ C_ 0.656942 0.593889 0.0811743 0.15351
C_ C_ 0.656322 0.837627 0.0905306 0.15351
C_ C_ 0.90153 0.586038 0.0867423 0.15351
C_ C_ 0.911386 0.844709 0.0772541 0.15351
C_ C_ 0.618476 0.563437 0.0855689 -0.35079
C_ C_ 0.621098 0.813279 0.102828 -0.35079
C_ C_ 0.863366 0.563109 0.0976542 -0.35079
C_ C_ 0.874541 0.813358 0.0798041 -0.35079
C_ C_ 0.571315 0.600707 0.026525 -0.12085
C_ C_ 0.583221 0.850577 0.0272709 -0.12085
C_ C_ 0.822335 0.599979 0.0216109 -0.12085
C_ C_ 0.827723 0.855274 0.028194 -0.12085
C_ C_ 0.568553 0.555592 0.452792 0.6956
C_ C_ 0.560669 0.803611 0.448167 0.6956
C_ C_ 0.820239 0.554503 0.448112 0.6956
C_ C_ 0.816389 0.806955 0.448369 0.6956
C_ C_ 0.55627 0.567365 0.496325 -0.16651
C_ C_ 0.550379 0.813573 0.492757 -0.16651
C_ C_ 0.811947 0.567266 0.492231 -0.16651
C_ C_ 0.805164 0.817613 0.492366 -0.16651
C_ C_ 0.751363 0.555931 0.0428146 -0.12085
C_ C_ 0.754315 0.812321 0.0465988 -0.12085
C_ C_ 0.00804135 0.553908 0.0449441 -0.12085
C_ C_ 0.00168636 0.806881 0.0404203 -0.12085
C_ C_ 0.560223 0.611667 0.0668081 0.16698
C_ C_ 0.56875 0.858482 0.0666208 0.16698
C_ C_ 0.814493 0.606823 0.0636707 0.16698
C_ C_ 0.815549 0.8643 0.0671669 0.16698
C_ C_ 0.562194 0.627772 0.135378 0.36401
C_ C_ 0.563775 0.872343 0.132258 0.36401
C_ C_ 0.812677 0.623409 0.131257 0.36401
C_ C_ 0.81603 0.875671 0.134417 0.36401
C_ C_ 0.525972 0.588245 0.0776196 0.16698
C_ C_ 0.531946 0.837255 0.0723166 0.16698
C_ C_ 0.777661 0.587991 0.0716324 0.16698
C_ C_ 0.778443 0.843077 0.0758533 0.16698
C_ C_ 0.517832 0.545374 0.506579 -0.12085
C_ C_ 0.512711 0.794729 0.503739 -0.12085
C_ C_ 0.773136 0.548005 0.502873 -0.12085
C_ C_ 0.770122 0.797146 0.503545 -0.12085
C_ C_ 0.574394 0.642427 0.182434 0.15351
C_ C_ 0.573678 0.890243 0.179546 0.15351
C_ C_ 0.824861 0.638193 0.179985 0.15351
C_ C_ 0.833842 0.884943 0.179805 0.15351
C_ C_ 0.583249 0.68119 0.198019 -0.35079
C_ C_ 0.585331 0.928015 0.191106 -0.35079
C_ C_ 0.838936 0.676733 0.20118 -0.35079
C_ C_ 0.854886 0.923147 0.208342 -0.35079
C_ C_ 0.50345 0.591244 0.281376 -0.12085
C_ C_ 0.510464 0.847007 0.282994 -0.12085
C_ C_ 0.757214 0.592562 0.277536 -0.12085
C_ C_ 0.761853 0.846528 0.280294 -0.12085
C_ C_ 0.732262 0.550915 0.202138 0.6956
C_ C_ 0.738508 0.804118 0.203294 0.6956
C_ C_ 0.981248 0.549794 0.202893 0.6956
C_ C_ 0.987499 0.802059 0.200808 0.6956
C_ C_ 0.499557 0.560532 0.249166 -0.16651
C_ C_ 0.5056 0.814582 0.248894 -0.16651
C_ C_ 0.751616 0.560754 0.246161 -0.16651
C_ C_ 0.756692 0.815685 0.248668 -0.16651
C_ C_ 0.531576 0.547996 0.300538 -0.12085
C_ C_ 0.546992 0.806236 0.299888 -0.12085
C_ C_ 0.792776 0.554063 0.297099 -0.12085
C_ C_ 0.794631 0.807136 0.301819 -0.12085
C_ C_ 0.524816 0.601248 0.32166 0.16698
C_ C_ 0.534073 0.857042 0.323428 0.16698
C_ C_ 0.774236 0.600866 0.319973 0.16698
C_ C_ 0.781387 0.85614 0.322148 0.16698
C_ C_ 0.564249 0.626108 0.379087 0.36401
C_ C_ 0.568665 0.881049 0.38358 0.36401
C_ C_ 0.815929 0.630918 0.375522 0.36401
C_ C_ 0.820443 0.883142 0.380086 0.36401
C_ C_ 0.53818 0.579843 0.331114 0.16698
C_ C_ 0.550324 0.836162 0.33055 0.16698
C_ C_ 0.792387 0.581744 0.329084 0.16698
C_ C_ 0.797712 0.835886 0.331785 0.16698
C_ C_ 0.512776 0.539287 0.261222 -0.12085
C_ C_ 0.521573 0.793511 0.260042 -0.12085
C_ C_ 0.773771 0.544303 0.255629 -0.12085
C_ C_ 0.772875 0.79593 0.260843 -0.12085
C_ C_ 0.587107 0.65183 0.422116 0.15351
C_ C_ 0.590799 0.908705 0.424169 0.15351
C_ C_ 0.839457 0.659618 0.416304 0.15351
C_ C_ 0.848262 0.913655 0.415128 0.15351
C_ C_ 0.623813 0.68297 0.417629 -0.35079
C_ C_ 0.6299 0.939341 0.423883 -0.35079
C_ C_ 0.877823 0.687854 0.410875 -0.35079
C_ C_ 0.882735 0.937711 0.397634 -0.35079
C_ C_ 0.674258 0.650171 0.478613 -0.12085
C_ C_ 0.672347 0.902 0.475102 -0.12085
C_ C_ 0.920407 0.650163 0.472881 -0.12085
C_ C_ 0.923783 0.903927 0.476327 -0.12085
C_ C_ 0.678213 0.694749 0.0493871 0.6956
C_ C_ 0.679519 0.947512 0.052763 0.6956
C_ C_ 0.93813 0.693513 0.0511245 0.6956
C_ C_ 0.939434 0.947854 0.0527271 0.6956
C_ C_ 0.687431 0.683099 0.00451255 -0.16651
C_ C_ 0.688932 0.936614 0.00704088 -0.16651
C_ C_ 0.949916 0.683394 0.00858497 -0.16651
C_ C_ 0.948791 0.937934 0.00810171 -0.16651
C_ C_ 0.495982 0.690145 0.456019 -0.12085
C_ C_ 0.497824 0.947178 0.457836 -0.12085
C_ C_ 0.745804 0.690007 0.455759 -0.12085
C_ C_ 0.746331 0.942914 0.455868 -0.12085
C_ C_ 0.685573 0.637428 0.437128 0.16698
C_ C_ 0.685372 0.892029 0.437214 0.16698
C_ C_ 0.93473 0.641198 0.433337 0.16698
C_ C_ 0.934999 0.892458 0.435842 0.16698
C_ C_ 0.682572 0.624379 0.368274 0.36401
C_ C_ 0.688478 0.876579 0.36898 0.36401
C_ C_ 0.937999 0.629162 0.366467 0.36401
C_ C_ 0.93969 0.87439 0.370557 0.36401
C_ C_ 0.722063 0.65852 0.427494 0.16698
C_ C_ 0.721108 0.912557 0.42744 0.16698
C_ C_ 0.972806 0.662488 0.42649 0.16698
C_ C_ 0.971444 0.914843 0.427173 0.16698
C_ C_ 0.722094 0.707109 0.992435 -0.12085
C_ C_ 0.725614 0.958053 0.996955 -0.12085
C_ C_ 0.98428 0.70755 0.997018 -0.12085
C_ C_ 0.984664 0.959069 0.996292 -0.12085
C_ C_ 0.665866 0.614331 0.320674 0.15351
C_ C_ 0.67757 0.863111 0.321152 0.15351
C_ C_ 0.922532 0.615287 0.318281 0.15351
C_ C_ 0.925155 0.859521 0.323289 0.15351
C_ C_ 0.650298 0.578016 0.295835 -0.35079
C_ C_ 0.668803 0.826263 0.304418 -0.35079
C_ C_ 0.911966 0.578774 0.292084 -0.35079
C_ C_ 0.915706 0.822314 0.304807 -0.35079
N_ N_ 0.704571 0.61502 0.148165 -0.51457
N_ N_ 0.708319 0.866468 0.154679 -0.51457
N_ N_ 0.956653 0.613614 0.146695 -0.51457
N_ N_ 0.959195 0.866952 0.146353 -0.51457
N_ N_ 0.676539 0.65103 0.137327 -0.51457
N_ N_ 0.676297 0.897341 0.139098 -0.51457
N_ N_ 0.930312 0.647912 0.130496 -0.51457
N_ N_ 0.932576 0.902764 0.133904 -0.51457
N_ N_ 0.584958 0.637388 0.104992 -0.51457
N_ N_ 0.589869 0.880963 0.104391 -0.51457
N_ N_ 0.837231 0.631475 0.0998199 -0.51457
N_ N_ 0.838736 0.886558 0.104249 -0.51457
N_ N_ 0.526697 0.597671 0.118689 -0.51457
N_ N_ 0.527768 0.845548 0.113712 -0.51457
N_ N_ 0.775666 0.596692 0.113785 -0.51457
N_ N_ 0.778593 0.850234 0.118173 -0.51457
N_ N_ 0.540403 0.631707 0.35377 -0.51457
N_ N_ 0.543785 0.885936 0.356409 -0.51457
N_ N_ 0.79015 0.633252 0.349244 -0.51457
N_ N_ 0.793771 0.886525 0.354104 -0.51457
N_ N_ 0.564983 0.594494 0.365512 -0.51457
N_ N_ 0.572894 0.851346 0.368858 -0.51457
N_ N_ 0.820058 0.600609 0.363015 -0.51457
N_ N_ 0.821916 0.85206 0.369435 -0.51457
N_ N_ 0.660038 0.615304 0.399815 -0.51457
N_ N_ 0.662491 0.867949 0.399706 -0.51457
N_ N_ 0.912044 0.619005 0.394377 -0.51457
N_ N_ 0.913183 0.866544 0.399537 -0.51457
N_ N_ 0.721983 0.649556 0.384431 -0.51457
N_ N_ 0.724064 0.904503 0.386436 -0.51457
N_ N_ 0.973436 0.657188 0.385086 -0.51457
N_ N_ 0.976111 0.903099 0.385783 -0.51457
O_ O_ 0.522 0.728315 0.324288 -0.61362
O_ O_ 0.5253 0.979799 0.322016 -0.61362
O_ O_ 0.773389 0.727908 0.324131 -0.61362
O_ O_ 0.77306 0.982512 0.324387 -0.61362
O_ O_ 0.554147 0.717207 0.382148 -0.98607
O_ O_ 0.55744 0.970571 0.382641 -0.98607
O_ O_ 0.802917 0.715183 0.380415 -0.98607
O_ O_ 0.804604 0.967926 0.381963 -0.98607
O_ O_ 0.523179 0.676264 0.31456 -0.61362
O_ O_ 0.519453 0.925319 0.311181 -0.61362
O_ O_ 0.777706 0.676467 0.310171 -0.61362
O_ O_ 0.772766 0.929919 0.312449 -0.61362
O_ O_ 0.677907 0.580586 0.0580093 -0.55956
O_ O_ 0.673785 0.820442 0.069442 -0.55956
O_ O_ 0.915625 0.56814 0.0604049 -0.55956
O_ O_ 0.933014 0.832723 0.0545532 -0.55956
O_ O_ 0.545646 0.52311 0.427926 -0.61362
O_ O_ 0.535905 0.774058 0.418967 -0.61362
O_ O_ 0.795126 0.524792 0.421537 -0.61362
O_ O_ 0.793906 0.777622 0.420683 -0.61362
O_ O_ 0.593847 0.534102 0.365663 -0.98607
O_ O_ 0.592796 0.786901 0.375003 -0.98607
O_ O_ 0.848469 0.538616 0.368604 -0.98607
O_ O_ 0.845359 0.785613 0.367275 -0.98607
O_ O_ 0.594954 0.578505 0.439362 -0.61362
O_ O_ 0.593748 0.826937 0.439535 -0.61362
O_ O_ 0.847075 0.578722 0.435366 -0.61362
O_ O_ 0.846308 0.830649 0.43817 -0.61362
O_ O_ 0.603636 0.638273 0.195214 -0.55956
O_ O_ 0.602854 0.889846 0.197666 -0.55956
O_ O_ 0.853477 0.631352 0.18937 -0.55956
O_ O_ 0.857941 0.872943 0.18566 -0.55956
O_ O_ 0.727768 0.522088 0.174196 -0.61362
O_ O_ 0.728305 0.77178 0.178154 -0.61362
O_ O_ 0.975872 0.519279 0.177057 -0.61362
O_ O_ 0.981845 0.771985 0.173263 -0.61362
O_ O_ 0.687835 0.530712 0.117644 -0.98607
O_ O_ 0.693192 0.784341 0.119807 -0.98607
O_ O_ 0.942067 0.529995 0.11261 -0.98607
O_ O_ 0.94433 0.781863 0.113278 -0.98607
O_ O_ 0.729784 0.575311 0.188911 -0.61362
O_ O_ 0.729117 0.825303 0.19122 -0.61362
O_ O_ 0.978768 0.572989 0.18956 -0.61362
O_ O_ 0.9828 0.824953 0.187436 -0.61362
O_ O_ 0.56361 0.661681 0.445105 -0.55956
O_ O_ 0.568047 0.919855 0.441705 -0.55956
O_ O_ 0.818359 0.675005 0.434435 -0.55956
O_ O_ 0.83053 0.928173 0.437748 -0.55956
O_ O_ 0.700293 0.726026 0.0742066 -0.61362
O_ O_ 0.70407 0.976788 0.0783231 -0.61362
O_ O_ 0.961551 0.724232 0.0790574 -0.61362
O_ O_ 0.961177 0.976712 0.0808102 -0.61362
O_ O_ 0.654724 0.71469 0.124006 -0.98607
O_ O_ 0.653086 0.964514 0.131976 -0.98607
O_ O_ 0.908519 0.713248 0.131615 -0.98607
O_ O_ 0.904598 0.966128 0.127283 -0.98607
O_ O_ 0.657556 0.670604 0.0662305 -0.61362
O_ O_ 0.653586 0.924178 0.0670209 -0.61362
O_ O_ 0.902933 0.675076 0.0599463 -0.61362
O_ O_ 0.912132 0.924711 0.0651004 -0.61362
O_ O_ 0.640721 0.626409 0.318564 -0.55956
O_ O_ 0.647248 0.866911 0.31 -0.55956
O_ O_ 0.894507 0.622486 0.312047 -0.55956
O_ O_ 0.895787 0.865065 0.312228 -0.55956
Zn Zn 0.521923 0.670594 0.860655 0.91541
Zn Zn 0.520812 0.925063 0.865999 0.91541
Zn Zn 0.770731 0.673874 0.865941 0.91541
Zn Zn 0.77159 0.923679 0.866017 0.91541
Zn Zn 0.59951 0.578013 0.88753 0.91541
Zn Zn 0.602348 0.832259 0.884386 0.91541
Zn Zn 0.851131 0.580082 0.887594 0.91541
Zn Zn 0.853833 0.833683 0.890417 0.91541
Zn Zn 0.727903 0.578145 0.635163 0.91541
Zn Zn 0.726845 0.827347 0.637801 0.91541
Zn Zn 0.981169 0.576687 0.638086 0.91541
Zn Zn 0.975502 0.827004 0.635556 0.91541
Zn Zn 0.648836 0.669613 0.618824 0.91541
Zn Zn 0.645574 0.918402 0.611922 0.91541
Zn Zn 0.898093 0.671247 0.614027 0.91541
Zn Zn 0.89369 0.920643 0.612939 0.91541
Zn Zn 0.553094 0.500248 0.879302 1.11764
Zn Zn 0.550685 0.749693 0.87405 1.11764
Zn Zn 0.804518 0.50212 0.876142 1.11764
Zn Zn 0.801357 0.755577 0.880443 1.11764
Zn Zn 0.699889 -0.0006549999999999612 0.625342 1.11764
Zn Zn 0.699649 0.747362 0.627269 1.11764
Zn Zn 0.941857 0.996241 0.622073 1.11764
Zn Zn 0.950086 0.748708 0.625744 1.11764
H_ H_ 0.760499 0.644966 0.725659 0.1146
H_ H_ 0.74415 0.88816 0.732599 0.1146
H_ H_ 0.000564106 0.634976 0.724676 0.1146
H_ H_ 0.00533882 0.890449 0.72302 0.1146
H_ H_ 0.684964 0.707923 0.699737 0.1146
H_ H_ 0.704086 0.966591 0.690879 0.1146
H_ H_ 0.941008 0.704686 0.695639 0.1146
H_ H_ 0.932688 0.955234 0.700362 0.1146
H_ H_ 0.719924 0.725292 0.771178 0.1146
H_ H_ 0.737829 0.985647 0.760492 0.1146
H_ H_ 0.979491 0.725796 0.764656 0.1146
H_ H_ 0.97278 0.975368 0.768799 0.1146
H_ H_ 0.679631 0.561702 0.541386 0.42917
H_ H_ 0.702833 0.826486 0.5401 0.42917
H_ H_ 0.962967 0.591929 0.540687 0.42917
H_ H_ 0.948892 0.827686 0.549259 0.42917
H_ H_ 0.650391 0.60375 0.563114 0.1146
H_ H_ 0.666302 0.861275 0.550698 0.1146
H_ H_ 0.906467 0.606033 0.556268 0.1146
H_ H_ 0.899648 0.85536 0.559366 0.1146
H_ H_ 0.601324 0.573128 0.606818 0.1146
H_ H_ 0.609225 0.806088 0.541944 0.1146
H_ H_ 0.887228 0.552247 0.597003 0.1146
H_ H_ 0.84681 0.821537 0.599192 0.1146
H_ H_ 0.605608 0.542267 0.559161 0.1146
H_ H_ 0.630465 0.801315 0.589881 0.1146
H_ H_ 0.857239 0.570491 0.581818 0.1146
H_ H_ 0.85839 0.790315 0.55668 0.1146
H_ H_ 0.629966 0.549589 0.615489 0.1146
H_ H_ 0.607653 0.828346 0.598946 0.1146
H_ H_ 0.866704 0.541452 0.543903 0.1146
H_ H_ 0.877338 0.802133 0.610931 0.1146
H_ H_ 0.57024 0.723092 0.904106 0.42917
H_ H_ 0.581484 0.972838 0.891853 0.42917
H_ H_ 0.819521 0.723167 0.904456 0.42917
H_ H_ 0.82037 0.97298 0.90747 0.42917
H_ H_ 0.610243 0.612431 0.526193 0.1146
H_ H_ 0.603447 0.861681 0.514146 0.1146
H_ H_ 0.864539 0.613279 0.518998 0.1146
H_ H_ 0.850349 0.867781 0.512957 0.1146
H_ H_ 0.731776 0.540639 0.548944 0.1146
H_ H_ 0.734834 0.787913 0.553051 0.1146
H_ H_ 0.979888 0.53391 0.552015 0.1146
H_ H_ 0.981474 0.786155 0.552699 0.1146
H_ H_ 0.747072 0.517365 0.980308 0.1146
H_ H_ 0.746993 0.777988 0.98223 0.1146
H_ H_ -0.00518799999999997 0.523471 0.978512 0.1146
H_ H_ 0.992639 0.771618 0.97603 0.1146
H_ H_ 0.615452 0.614405 0.678778 0.42917
H_ H_ 0.611284 0.861525 0.679846 0.42917
H_ H_ 0.872457 0.631601 0.70546 0.42917
H_ H_ 0.866881 0.90938 0.718277 0.42917
H_ H_ 0.551793 0.62514 0.699201 0.1146
H_ H_ 0.550602 0.872801 0.691484 0.1146
H_ H_ 0.804811 0.629196 0.695151 0.1146
H_ H_ 0.795736 0.883347 0.693951 0.1146
H_ H_ 0.618527 0.690989 0.693492 0.1146
H_ H_ 0.570736 0.937144 0.698055 0.1146
H_ H_ 0.825283 0.689592 0.669855 0.1146
H_ H_ 0.84806 0.951752 0.678869 0.1146
H_ H_ 0.570143 0.685188 0.698055 0.1146
H_ H_ 0.60362 0.931967 0.734654 0.1146
H_ H_ 0.830591 0.691436 0.723204 0.1146
H_ H_ 0.792086 0.930031 0.664641 0.1146
H_ H_ 0.598244 0.680946 0.738849 0.1146
H_ H_ 0.620173 0.939052 0.688847 0.1146
H_ H_ 0.872352 0.69362 0.700603 0.1146
H_ H_ 0.818976 0.943017 0.722179 0.1146
H_ H_ 0.61225 0.533139 0.882989 0.42917
H_ H_ 0.610265 0.781818 0.864044 0.42917
H_ H_ 0.858871 0.532223 0.854814 0.42917
H_ H_ 0.860103 0.784044 0.861344 0.42917
H_ H_ 0.493989 0.607151 0.77137 0.1146
H_ H_ 0.497184 0.859798 0.768219 0.1146
H_ H_ 0.747316 0.611787 0.76766 0.1146
H_ H_ 0.769998 0.868524 0.767528 0.1146
H_ H_ 0.554914 0.537325 0.813214 0.1146
H_ H_ 0.560106 0.794139 0.806484 0.1146
H_ H_ 0.795815 0.536502 0.809168 0.1146
H_ H_ 0.805506 0.789536 0.811768 0.1146
H_ H_ 0.524374 0.518895 0.739705 0.1146
H_ H_ 0.524458 0.772483 0.738321 0.1146
H_ H_ 0.773593 0.524622 0.73688 0.1146
H_ H_ 0.775903 0.773042 0.737099 0.1146
H_ H_ 0.566201 0.683334 0.967409 0.42917
H_ H_ 0.557392 0.936939 0.954836 0.42917
H_ H_ 0.789488 0.659845 0.956355 0.42917
H_ H_ 0.811031 0.933072 0.967089 0.42917
H_ H_ 0.603228 0.649145 0.937722 0.1146
H_ H_ 0.596963 0.902475 0.938295 0.1146
H_ H_ 0.840182 0.641206 0.945549 0.1146
H_ H_ 0.84361 0.897014 0.947041 0.1146
H_ H_ 0.645351 0.70611 0.939344 0.1146
H_ H_ 0.645187 0.957544 0.928674 0.1146
H_ H_ 0.865094 0.706064 0.921985 0.1146
H_ H_ 0.887843 0.956628 0.946311 0.1146
H_ H_ 0.616976 0.698667 0.888668 0.1146
H_ H_ 0.622602 0.944518 0.875624 0.1146
H_ H_ 0.885754 0.681445 0.896457 0.1146
H_ H_ 0.866614 0.946641 0.892932 0.1146
H_ H_ 0.648363 0.677973 0.893616 0.1146
H_ H_ 0.641896 0.919297 0.886921 0.1146
H_ H_ 0.889066 0.694687 0.955998 0.1146
H_ H_ 0.895477 0.92735 0.903356 0.1146
H_ H_ 0.677024 0.526749 0.595742 0.42917
H_ H_ 0.67932 0.777208 0.598115 0.42917
H_ H_ 0.930869 0.52738 0.600475 0.42917
H_ H_ 0.921141 0.777626 0.606453 0.42917
H_ H_ 0.642293 0.630125 0.980455 0.1146
H_ H_ 0.63193 0.890562 0.976413 0.1146
H_ H_ 0.900304 0.632225 0.987013 0.1146
H_ H_ 0.895744 0.891741 0.983185 0.1146
H_ H_ 0.517473 0.710885 0.946809 0.1146
H_ H_ 0.510383 0.964643 0.945479 0.1146
H_ H_ 0.756456 0.71265 0.939946 0.1146
H_ H_ 0.75712 0.969504 0.947384 0.1146
H_ H_ 0.503431 0.725556 0.520126 0.1146
H_ H_ 0.507952 0.979065 0.525432 0.1146
H_ H_ 0.757832 0.726834 0.517394 0.1146
H_ H_ 0.753365 0.977167 0.519951 0.1146
H_ H_ 0.621479 0.612932 0.794473 0.42917
H_ H_ 0.635305 0.876321 0.797829 0.42917
H_ H_ 0.880257 0.629039 0.81552 0.42917
H_ H_ 0.877525 0.869311 0.816273 0.42917
H_ H_ 0.694214 0.621772 0.806112 0.1146
H_ H_ 0.698579 0.872023 0.806829 0.1146
H_ H_ 0.946001 0.624812 0.807962 0.1146
H_ H_ 0.948698 0.870809 0.806673 0.1146
H_ H_ 0.682791 0.567619 0.8025 0.1146
H_ H_ 0.637679 0.805664 0.820144 0.1146
H_ H_ 0.930571 0.565792 0.820218 0.1146
H_ H_ 0.925605 0.815391 0.842401 0.1146
H_ H_ 0.645835 0.563166 0.762881 0.1146
H_ H_ 0.685958 0.814479 0.811365 0.1146
H_ H_ 0.915885 0.565878 0.768814 0.1146
H_ H_ 0.93115 0.807462 0.78494 0.1146
H_ H_ 0.63236 0.554849 0.812855 0.1146
H_ H_ 0.657241 0.81094 0.770851 0.1146
H_ H_ 0.877144 0.555621 0.79869 0.1146
H_ H_ 0.886332 0.803151 0.804753 0.1146
H_ H_ 0.637387 0.720862 0.632619 0.42917
H_ H_ 0.644183 0.97122 0.644028 0.42917
H_ H_ 0.890726 0.720823 0.636441 0.42917
H_ H_ 0.876918 0.965506 0.620062 0.42917
C_ C_ 0.738816 0.655585 0.724015 -0.12085
C_ C_ 0.734699 0.904315 0.725018 -0.12085
C_ C_ 0.9877 0.649627 0.721332 -0.12085
C_ C_ 0.99062 0.905204 0.719898 -0.12085
C_ C_ 0.509454 0.694126 0.799229 0.6956
C_ C_ 0.512038 0.950493 0.800532 0.6956
C_ C_ 0.761943 0.697862 0.802696 0.6956
C_ C_ 0.758776 0.948185 0.7993 0.6956
C_ C_ 0.741191 0.686161 0.757009 -0.16651
C_ C_ 0.741735 0.937111 0.754144 -0.16651
C_ C_ 0.989892 0.679859 0.75497 -0.16651
C_ C_ 0.991875 0.933667 0.752327 -0.16651
C_ C_ 0.702892 0.695132 0.704788 -0.12085
C_ C_ 0.709375 0.948566 0.699957 -0.12085
C_ C_ 0.952978 0.689657 0.703257 -0.12085
C_ C_ 0.950919 0.944138 0.70364 -0.12085
C_ C_ 0.720132 0.646304 0.681484 0.16698
C_ C_ 0.715574 0.894531 0.683545 0.16698
C_ C_ 0.962979 0.638975 0.680915 0.16698
C_ C_ 0.965908 0.89477 0.681418 0.16698
C_ C_ 0.68346 0.61946 0.624843 0.36401
C_ C_ 0.686695 0.871811 0.617048 0.36401
C_ C_ 0.933379 0.617651 0.619221 0.36401
C_ C_ 0.930853 0.869017 0.620673 0.36401
C_ C_ 0.704084 0.666844 0.673357 0.16698
C_ C_ 0.702001 0.916194 0.672085 0.16698
C_ C_ 0.944334 0.658165 0.674521 0.16698
C_ C_ 0.948792 0.915306 0.672959 0.16698
C_ C_ 0.721063 0.704238 0.74604 -0.12085
C_ C_ 0.731723 0.959953 0.739818 -0.12085
C_ C_ 0.973107 0.700549 0.744061 -0.12085
C_ C_ 0.973195 0.953885 0.743374 -0.12085
C_ C_ 0.65818 0.590643 0.584405 0.15351
C_ C_ 0.666632 0.847039 0.57393 0.15351
C_ C_ 0.917163 0.592875 0.574032 0.15351
C_ C_ 0.907148 0.840455 0.57949 0.15351
C_ C_ 0.62145 0.561199 0.591334 -0.35079
C_ C_ 0.625577 0.81882 0.575596 -0.35079
C_ C_ 0.880887 0.562616 0.573596 -0.35079
C_ C_ 0.869059 0.81235 0.586818 -0.35079
C_ C_ 0.580645 0.597018 0.529213 -0.12085
C_ C_ 0.575633 0.846003 0.523224 -0.12085
C_ C_ 0.834984 0.598883 0.524426 -0.12085
C_ C_ 0.83091 0.84941 0.525028 -0.12085
C_ C_ 0.558908 0.553911 0.952471 0.6956
C_ C_ 0.567773 0.808589 0.949259 0.6956
C_ C_ 0.810773 0.55578 0.948238 0.6956
C_ C_ 0.810515 0.812063 0.949743 0.6956
C_ C_ 0.548082 0.567639 0.996042 -0.16651
C_ C_ 0.558799 0.818502 0.993295 -0.16651
C_ C_ 0.799423 0.56602 0.992468 -0.16651
C_ C_ 0.801516 0.824454 0.994221 -0.16651
C_ C_ 0.760232 0.557954 0.542592 -0.12085
C_ C_ 0.75932 0.8057 0.544215 -0.12085
C_ C_ 1.0073163 0.551006 0.543248 -0.12085
C_ C_ 0.00282747 0.805789 0.541733 -0.12085
C_ C_ 0.567589 0.607712 0.56841 0.16698
C_ C_ 0.562442 0.858021 0.563277 0.16698
C_ C_ 0.820141 0.609227 0.56484 0.16698
C_ C_ 0.818988 0.857422 0.565811 0.16698
C_ C_ 0.565109 0.624661 0.635792 0.36401
C_ C_ 0.561102 0.876451 0.629433 0.36401
C_ C_ 0.815814 0.627248 0.632122 0.36401
C_ C_ 0.812617 0.876464 0.631577 0.36401
C_ C_ 0.530841 0.586875 0.575696 0.16698
C_ C_ 0.5262 0.838687 0.570926 0.16698
C_ C_ 0.783532 0.589272 0.57253 0.16698
C_ C_ 0.783138 0.836009 0.57351 0.16698
C_ C_ 0.513861 0.543556 0.0086755 -0.12085
C_ C_ 0.521312 0.796948 1.00183447 -0.12085
C_ C_ 0.762883 0.543811 0.00261702 -0.12085
C_ C_ 0.764651 0.803371 0.00505641 -0.12085
C_ C_ 0.577791 0.636609 0.68235 0.15351
C_ C_ 0.576217 0.886991 0.677289 0.15351
C_ C_ 0.829589 0.642955 0.679594 0.15351
C_ C_ 0.819191 0.898016 0.677768 0.15351
C_ C_ 0.590478 0.674466 0.70456 -0.35079
C_ C_ 0.592229 0.925987 0.700554 -0.35079
C_ C_ 0.840499 0.681623 0.693871 -0.35079
C_ C_ 0.820295 0.933642 0.6862 -0.35079
C_ C_ 0.505559 0.591207 0.780865 -0.12085
C_ C_ 0.507909 0.844192 0.775865 -0.12085
C_ C_ 0.760746 0.597374 0.778146 -0.12085
C_ C_ 0.770553 0.849223 0.77676 -0.12085
C_ C_ 0.74105 0.557029 0.701723 0.6956
C_ C_ 0.745109 0.804617 0.700907 0.6956
C_ C_ 0.989578 0.553445 0.70156 0.6956
C_ C_ 0.990646 0.804482 0.701813 0.6956
C_ C_ 0.504589 0.560911 0.749053 -0.16651
C_ C_ 0.506721 0.814038 0.743667 -0.16651
C_ C_ 0.756687 0.565734 0.746459 -0.16651
C_ C_ 0.764079 0.817167 0.746384 -0.16651
C_ C_ 0.542097 0.553514 0.803517 -0.12085
C_ C_ 0.547536 0.808695 0.798563 -0.12085
C_ C_ 0.792832 0.556216 0.799812 -0.12085
C_ C_ 0.797083 0.806869 0.801364 -0.12085
C_ C_ 0.527115 0.603016 0.821431 0.16698
C_ C_ 0.525363 0.853623 0.818712 0.16698
C_ C_ 0.778308 0.606075 0.820482 0.16698
C_ C_ 0.781389 0.854717 0.819778 0.16698
C_ C_ 0.563681 0.629871 0.881145 0.36401
C_ C_ 0.561725 0.880746 0.877873 0.36401
C_ C_ 0.815016 0.631818 0.880747 0.36401
C_ C_ 0.814815 0.88077 0.882058 0.36401
C_ C_ 0.540027 0.581268 0.833016 0.16698
C_ C_ 0.543932 0.835055 0.829238 0.16698
C_ C_ 0.791854 0.583721 0.829886 0.16698
C_ C_ 0.792963 0.833246 0.832821 0.16698
C_ C_ 0.523804 0.541564 0.761204 -0.12085
C_ C_ 0.525737 0.795921 0.756672 -0.12085
C_ C_ 0.771645 0.545535 0.758847 -0.12085
C_ C_ 0.776331 0.795659 0.760361 -0.12085
C_ C_ 0.590903 0.660166 0.919786 0.15351
C_ C_ 0.588374 0.912419 0.913601 0.15351
C_ C_ 0.832103 0.655686 0.925029 0.15351
C_ C_ 0.837939 0.909026 0.923804 0.15351
C_ C_ 0.627543 0.687762 0.909517 -0.35079
C_ C_ 0.626581 0.935388 0.901664 -0.35079
C_ C_ 0.86873 0.684659 0.925388 -0.35079
C_ C_ 0.875373 0.936933 0.916676 -0.35079
C_ C_ 0.669939 0.647854 0.975647 -0.12085
C_ C_ 0.663455 0.905539 0.97252 -0.12085
C_ C_ 0.923611 0.651981 0.976897 -0.12085
C_ C_ 0.923761 0.90706 0.976414 -0.12085
C_ C_ 0.692097 0.692848 0.554187 0.6956
C_ C_ 0.686747 0.944564 0.551007 0.6956
C_ C_ 0.933373 0.692263 0.546918 0.6956
C_ C_ 0.935384 0.945043 0.549559 0.6956
C_ C_ 0.700929 0.681145 0.509307 -0.16651
C_ C_ 0.698561 0.932502 0.50803 -0.16651
C_ C_ 0.94678 0.682163 0.505658 -0.16651
C_ C_ 0.94883 0.934659 0.507559 -0.16651
C_ C_ 0.491001 0.693968 0.956828 -0.12085
C_ C_ 0.491779 0.943076 0.956501 -0.12085
C_ C_ 0.73459 0.695526 0.952961 -0.12085
C_ C_ 0.73581 0.949565 0.956171 -0.12085
C_ C_ 0.681306 0.63866 0.935864 0.16698
C_ C_ 0.679072 0.893986 0.935865 0.16698
C_ C_ 0.93261 0.643344 0.935014 0.16698
C_ C_ 0.934477 0.896565 0.935618 0.16698
C_ C_ 0.683495 0.622017 0.868703 0.36401
C_ C_ 0.68359 0.877315 0.869227 0.36401
C_ C_ 0.93546 0.626129 0.867732 0.36401
C_ C_ 0.936944 0.876759 0.869725 0.36401
C_ C_ 0.715673 0.662797 0.927824 0.16698
C_ C_ 0.715296 0.916003 0.92913 0.16698
C_ C_ 0.96727 0.667155 0.924759 0.16698
C_ C_ 0.970561 0.916253 0.9271 0.16698
C_ C_ 0.736069 0.701369 0.497067 -0.12085
C_ C_ 0.735625 0.952558 0.497104 -0.12085
C_ C_ 0.986631 0.70114 0.498974 -0.12085
C_ C_ 0.981365 0.956644 0.49403 -0.12085
C_ C_ 0.668906 0.607929 0.821305 0.15351
C_ C_ 0.671963 0.859732 0.821365 0.15351
C_ C_ 0.920812 0.610382 0.820547 0.15351
C_ C_ 0.923482 0.857603 0.822505 0.15351
C_ C_ 0.656738 0.571664 0.79835 -0.35079
C_ C_ 0.662649 0.820901 0.805896 -0.35079
C_ C_ 0.911019 0.571491 0.800646 -0.35079
C_ C_ 0.919146 0.819932 0.813058 -0.35079
N_ N_ 0.707444 0.615382 0.651094 -0.51457
N_ N_ 0.70804 0.866366 0.647161 -0.51457
N_ N_ 0.957517 0.613208 0.64574 -0.51457
N_ N_ 0.955211 0.864595 0.648054 -0.51457
N_ N_ 0.67869 0.649429 0.637972 -0.51457
N_ N_ 0.682563 0.901618 0.631427 -0.51457
N_ N_ 0.929377 0.648232 0.633072 -0.51457
N_ N_ 0.925877 0.899134 0.635493 -0.51457
N_ N_ 0.590898 0.631841 0.606323 -0.51457
N_ N_ 0.586381 0.883076 0.599564 -0.51457
N_ N_ 0.841108 0.634361 0.602503 -0.51457
N_ N_ 0.83734 0.884649 0.600579 -0.51457
N_ N_ 0.528258 0.597908 0.618259 -0.51457
N_ N_ 0.523566 0.848844 0.612155 -0.51457
N_ N_ 0.779084 0.600483 0.614271 -0.51457
N_ N_ 0.779205 0.846883 0.61545 -0.51457
N_ N_ 0.542585 0.634704 0.850876 -0.51457
N_ N_ 0.537652 0.884331 0.85019 -0.51457
N_ N_ 0.792228 0.636634 0.851644 -0.51457
N_ N_ 0.792191 0.885166 0.851256 -0.51457
N_ N_ 0.563385 0.597503 0.871654 -0.51457
N_ N_ 0.566868 0.851266 0.867164 -0.51457
N_ N_ 0.81723 0.600121 0.866633 -0.51457
N_ N_ 0.816116 0.849271 0.870022 -0.51457
N_ N_ 0.658309 0.614171 0.89971 -0.51457
N_ N_ 0.65845 0.869231 0.898399 -0.51457
N_ N_ 0.90957 0.617597 0.898313 -0.51457
N_ N_ 0.911115 0.871429 0.898709 -0.51457
N_ N_ 0.720728 0.65171 0.88646 -0.51457
N_ N_ 0.720253 0.905819 0.887998 -0.51457
N_ N_ 0.971176 0.655746 0.883753 -0.51457
N_ N_ 0.973563 0.904858 0.884435 -0.51457
O_ O_ 0.512254 0.722663 0.82673 -0.61362
O_ O_ 0.520396 0.980217 0.827373 -0.61362
O_ O_ 0.774276 0.73054 0.826665 -0.61362
O_ O_ 0.771094 0.979963 0.822394 -0.61362
O_ O_ 0.552021 0.715629 0.882058 -0.98607
O_ O_ 0.558069 0.968547 0.88145 -0.98607
O_ O_ 0.800293 0.718736 0.886801 -0.98607
O_ O_ 0.802687 0.967214 0.886853 -0.98607
O_ O_ 0.522078 0.674452 0.810236 -0.61362
O_ O_ 0.510645 0.926478 0.816178 -0.61362
O_ O_ 0.76784 0.675998 0.816207 -0.61362
O_ O_ 0.7689 0.928027 0.812484 -0.61362
O_ O_ 0.677474 0.576983 0.562851 -0.55956
O_ O_ 0.686373 0.829767 0.557822 -0.55956
O_ O_ 0.943487 0.583679 0.553718 -0.55956
O_ O_ 0.9269 0.826169 0.557719 -0.55956
O_ O_ 0.539536 0.522601 0.928376 -0.61362
O_ O_ 0.546366 0.777454 0.922056 -0.61362
O_ O_ 0.794534 0.523422 0.924443 -0.61362
O_ O_ 0.787196 0.780199 0.923028 -0.61362
O_ O_ 0.590916 0.535111 0.877421 -0.98607
O_ O_ 0.590186 0.786338 0.870259 -0.98607
O_ O_ 0.842352 0.537016 0.869583 -0.98607
O_ O_ 0.842254 0.788802 0.873985 -0.98607
O_ O_ 0.588875 0.57553 0.93945 -0.61362
O_ O_ 0.599098 0.830771 0.938474 -0.61362
O_ O_ 0.841179 0.577573 0.936911 -0.61362
O_ O_ 0.844281 0.831026 0.941205 -0.61362
O_ O_ 0.604619 0.627789 0.688691 -0.55956
O_ O_ 0.60395 0.877328 0.682769 -0.55956
O_ O_ 0.860556 0.638727 0.68989 -0.55956
O_ O_ 0.852347 0.902906 0.694458 -0.55956
O_ O_ 0.727527 0.524617 0.675973 -0.61362
O_ O_ 0.729655 0.772076 0.67773 -0.61362
O_ O_ 0.98547 0.523963 0.674467 -0.61362
O_ O_ 0.981887 0.773112 0.675239 -0.61362
O_ O_ 0.697392 0.532562 0.612338 -0.98607
O_ O_ 0.695671 0.782184 0.619025 -0.98607
O_ O_ 0.950936 0.532176 0.617559 -0.98607
O_ O_ 0.942864 0.782963 0.618781 -0.98607
O_ O_ 0.742054 0.580837 0.686724 -0.61362
O_ O_ 0.734631 0.826309 0.688982 -0.61362
O_ O_ 0.978339 0.572864 0.69031 -0.61362
O_ O_ 0.981439 0.825625 0.688687 -0.61362
O_ O_ 0.570294 0.673611 0.942219 -0.55956
O_ O_ 0.568846 0.929051 0.931967 -0.55956
O_ O_ 0.808618 0.666441 0.943373 -0.55956
O_ O_ 0.814657 0.922749 0.941094 -0.55956
O_ O_ 0.712708 0.724937 0.579497 -0.61362
O_ O_ 0.709327 0.976556 0.577177 -0.61362
O_ O_ 0.952295 0.724088 0.571967 -0.61362
O_ O_ 0.953811 0.976772 0.574838 -0.61362
O_ O_ 0.656461 0.71427 0.629704 -0.98607
O_ O_ 0.659365 0.963135 0.628465 -0.98607
O_ O_ 0.909819 0.715313 0.628606 -0.98607
O_ O_ 0.899186 0.962923 0.621907 -0.98607
O_ O_ 0.662923 0.670818 0.565539 -0.61362
O_ O_ 0.653844 0.924194 0.561731 -0.61362
O_ O_ 0.911258 0.66896 0.563811 -0.61362
O_ O_ 0.908203 0.922919 0.562321 -0.61362
O_ O_ 0.640375 0.615287 0.813239 -0.55956
O_ O_ 0.643771 0.86281 0.803166 -0.55956
O_ O_ 0.892611 0.616285 0.809674 -0.55956
O_ O_ 0.892242 0.858547 0.809666 -0.55956
_cell_length_a 37.194
_cell_length_b 45.259999627434034
_cell_length_c 33.09000048594031
_cell_angle_alpha 107.03300062247644
_cell_angle_beta 90.06299939653213
_cell_angle_gamma 114.03899985713122
_symmetry_space_group_name_H-M         'P 1'
_symmetry_Int_Tables_number            1
loop_
_symmetry_equiv_pos_as_xyz
   'x, y, z'
                         
loop_
_atom_site_label
_atom_site_type_symbol
_atom_site_fract_x 
_atom_site_fract_y
_atom_site_fract_z
_atom_site_charge
Zn Zn 0.0275653 0.177953 0.36396 0.91541
Zn Zn 0.0268461 0.425076 0.363483 0.91541
Zn Zn 0.274011 0.172528 0.366514 0.91541
Zn Zn 0.27732 0.42382 0.363231 0.91541
Zn Zn 0.103469 0.0822937 0.386976 0.91541
Zn Zn 0.111349 0.333309 0.384428 0.91541
Zn Zn 0.352556 0.0787071 0.388602 0.91541
Zn Zn 0.351969 0.328196 0.384573 0.91541
Zn Zn 0.224181 0.0762212 0.135739 0.91541
Zn Zn 0.2271 0.325114 0.131864 0.91541
Zn Zn 0.474814 0.0738378 0.135533 0.91541
Zn Zn 0.478216 0.329559 0.138034 0.91541
Zn Zn 0.149407 0.170983 0.113417 0.91541
Zn Zn 0.144181 0.416474 0.112839 0.91541
Zn Zn 0.396276 0.169163 0.119751 0.91541
Zn Zn 0.39537 0.419997 0.112285 0.91541
Zn Zn 0.0540477 0.00447089 0.377089 1.11764
Zn Zn 0.052818 0.25498 0.372823 1.11764
Zn Zn 0.303208 0.00198559 0.376913 1.11764
Zn Zn 0.301808 0.25275 0.376576 1.11764
Zn Zn 0.191509 0.494826 0.128614 1.11764
Zn Zn 0.198332 0.248215 0.124393 1.11764
Zn Zn 0.445343 0.497758 0.124578 1.11764
Zn Zn 0.450025 0.24835 0.12868 1.11764
H_ H_ 0.251302 0.140121 0.229833 0.1146
H_ H_ 0.253344 0.386573 0.224504 0.1146
H_ H_ 0.505697 0.137465 0.227005 0.1146
H_ H_ 0.509396 0.39582 0.231866 0.1146
H_ H_ 0.191454 0.212977 0.196419 0.1146
H_ H_ 0.185402 0.452355 0.192729 0.1146
H_ H_ 0.442553 0.206837 0.196019 0.1146
H_ H_ 0.432459 0.459724 0.203648 0.1146
H_ H_ 0.232949 0.23212 0.265016 0.1146
H_ H_ 0.221484 0.472316 0.26699 0.1146
H_ H_ 0.476587 0.226652 0.270241 0.1146
H_ H_ 0.468924 0.476656 0.270923 0.1146
H_ H_ 0.225963 0.105225 0.0489729 0.42917
H_ H_ 0.176898 0.31192 0.0319089 0.42917
H_ H_ 0.445371 0.0736205 0.0489422 0.42917
H_ H_ 0.44624 0.323436 0.0397776 0.42917
H_ H_ 0.164694 0.116283 0.0554002 0.1146
H_ H_ 0.146423 0.350066 0.0599485 0.1146
H_ H_ 0.403733 0.102405 0.060841 0.1146
H_ H_ 0.415364 0.359911 0.06052 0.1146
H_ H_ 0.128457 0.0541211 0.0272786 0.1146
H_ H_ 0.0977153 0.288659 0.0634194 0.1146
H_ H_ 0.371482 0.0537154 0.114392 0.1146
H_ H_ 0.376705 0.306642 0.109082 0.1146
H_ H_ 0.143681 0.0492029 0.0721782 0.1146
H_ H_ 0.121715 0.297933 0.114917 0.1146
H_ H_ 0.34602 0.0726416 0.0912533 0.1146
H_ H_ 0.353088 0.32877 0.09392 0.1146
H_ H_ 0.114091 0.0669456 0.0837179 0.1146
H_ H_ 0.0974278 0.324688 0.106592 0.1146
H_ H_ 0.359156 0.0423752 0.0602442 0.1146
H_ H_ 0.362313 0.298751 0.0529013 0.1146
H_ H_ 0.0832321 0.230104 0.396891 0.42917
H_ H_ 0.0733286 0.473032 0.405427 0.42917
H_ H_ 0.330497 0.222221 0.393182 0.42917
H_ H_ 0.331841 0.475009 0.394701 0.42917
H_ H_ 0.11222 0.110108 0.0218991 0.1146
H_ H_ 0.107041 0.360292 0.019758 0.1146
H_ H_ 0.356704 0.114167 0.0174574 0.1146
H_ H_ 0.361881 0.357102 0.0213607 0.1146
H_ H_ 0.224029 0.0443473 0.0494147 0.1146
H_ H_ 0.227299 0.292982 0.0463792 0.1146
H_ H_ 0.484968 0.0325917 0.0537464 0.1146
H_ H_ 0.490576 0.290786 0.0568918 0.1146
H_ H_ 0.252274 0.0187631 0.490685 0.1146
H_ H_ 0.25009 0.268068 0.483406 0.1146
H_ H_ 0.500385 0.0263135 0.47873 0.1146
H_ H_ 0.502445 0.270789 0.485553 0.1146
H_ H_ 0.132763 0.157069 0.214514 0.42917
H_ H_ 0.112679 0.368052 0.20038 0.42917
H_ H_ 0.375624 0.145577 0.207058 0.42917
H_ H_ 0.361637 0.372858 0.198649 0.42917
H_ H_ 0.056616 0.12957 0.197432 0.1146
H_ H_ 0.051739 0.373531 0.193159 0.1146
H_ H_ 0.30301 0.125276 0.1926 0.1146
H_ H_ 0.301008 0.37438 0.188419 0.1146
H_ H_ 0.0589922 0.186184 0.176636 0.1146
H_ H_ 0.0645869 0.429967 0.185734 0.1146
H_ H_ 0.308093 0.182079 0.175549 0.1146
H_ H_ 0.31126 0.433664 0.185252 0.1146
H_ H_ 0.0774183 0.188378 0.227357 0.1146
H_ H_ 0.0954784 0.433382 0.230279 0.1146
H_ H_ 0.326861 0.188468 0.229453 0.1146
H_ H_ 0.338847 0.435498 0.232253 0.1146
H_ H_ 0.109553 0.196249 0.186743 0.1146
H_ H_ 0.117247 0.437162 0.184844 0.1146
H_ H_ 0.359034 0.196725 0.192616 0.1146
H_ H_ 0.364269 0.443398 0.187806 0.1146
H_ H_ 0.11649 0.0350659 0.372005 0.42917
H_ H_ 0.116443 0.282425 0.368836 0.42917
H_ H_ 0.361621 0.029652 0.363434 0.42917
H_ H_ 0.355322 0.277345 0.349826 0.42917
H_ H_ 1.00289859 0.115398 0.269477 0.1146
H_ H_ 0.999344 0.362272 0.271277 0.1146
H_ H_ 0.238675 0.10642 0.277097 0.1146
H_ H_ 0.246984 0.359575 0.269774 0.1146
H_ H_ 0.0586579 0.0411368 0.306564 0.1146
H_ H_ 0.0505309 0.286219 0.304084 0.1146
H_ H_ 0.30967 0.0403388 0.306459 0.1146
H_ H_ 0.304604 0.289061 0.306062 0.1146
H_ H_ 0.0285796 0.027497 0.232666 0.1146
H_ H_ 0.0160763 0.271599 0.234265 0.1146
H_ H_ 0.280143 0.0253383 0.233567 0.1146
H_ H_ 0.276645 0.274333 0.230487 0.1146
H_ H_ 0.0634828 0.1737 0.47159 0.42917
H_ H_ 0.0777825 0.434833 0.469094 0.42917
H_ H_ 0.313209 0.180241 0.465727 0.42917
H_ H_ 0.324117 0.439596 0.456684 0.42917
H_ H_ 0.103973 0.146454 0.432284 0.1146
H_ H_ 0.113746 0.4013 0.432646 0.1146
H_ H_ 0.356058 0.153234 0.445435 0.1146
H_ H_ 0.349481 0.397028 0.43999 0.1146
H_ H_ 0.113684 0.195692 0.383667 0.1146
H_ H_ 0.117356 0.449383 0.385225 0.1146
H_ H_ 0.397073 0.207375 0.442986 0.1146
H_ H_ 0.405173 0.448787 0.433832 0.1146
H_ H_ 0.144873 0.17695 0.392891 0.1146
H_ H_ 0.142796 0.427733 0.382209 0.1146
H_ H_ 0.374622 0.199152 0.389022 0.1146
H_ H_ 0.381934 0.450296 0.390189 0.1146
H_ H_ 0.147294 0.212801 0.430859 0.1146
H_ H_ 0.151183 0.455713 0.435555 0.1146
H_ H_ 0.396478 0.174448 0.397287 0.1146
H_ H_ 0.397055 0.415059 0.386963 0.1146
H_ H_ 0.164277 0.0245039 0.112307 0.42917
H_ H_ 0.169576 0.272841 0.099851 0.42917
H_ H_ 0.417005 0.0239859 0.103476 0.42917
H_ H_ 0.422485 0.278759 0.108195 0.42917
H_ H_ 0.139079 0.138928 0.483223 0.1146
H_ H_ 0.150809 0.384671 0.484132 0.1146
H_ H_ 0.389287 0.137266 0.4796 0.1146
H_ H_ 0.388835 0.384342 0.477821 0.1146
H_ H_ 0.0316416 0.216391 0.452952 0.1146
H_ H_ 0.0219876 0.459104 0.448212 0.1146
H_ H_ 0.272926 0.210339 0.451893 0.1146
H_ H_ 0.269185 0.469217 0.446855 0.1146
H_ H_ 0.005349999999999966 0.219813 0.0218904 0.1146
H_ H_ 0.990689 0.478897 0.0137182 0.1146
H_ H_ 0.250906 0.231886 0.0157042 0.1146
H_ H_ 0.243409 0.480919 0.0175426 0.1146
H_ H_ 0.123227 0.117341 0.291608 0.42917
H_ H_ 0.127741 0.370352 0.299857 0.42917
H_ H_ 0.381148 0.127774 0.313704 0.42917
H_ H_ 0.372229 0.372742 0.298492 0.42917
H_ H_ 0.194753 0.128172 0.308722 0.1146
H_ H_ 0.199334 0.380674 0.304136 0.1146
H_ H_ 0.448902 0.120584 0.305417 0.1146
H_ H_ 0.442609 0.378979 0.308702 0.1146
H_ H_ 0.180247 0.0674184 0.313526 0.1146
H_ H_ 0.150299 0.322503 0.266408 0.1146
H_ H_ 0.41235 0.0689006 0.266608 0.1146
H_ H_ 0.433699 0.317788 0.311353 0.1146
H_ H_ 0.163896 0.0724616 0.267509 0.1146
H_ H_ 0.135559 0.310968 0.313452 0.1146
H_ H_ 0.38272 0.0527557 0.307458 0.1146
H_ H_ 0.414021 0.318893 0.262903 0.1146
H_ H_ 0.129325 0.0567102 0.300912 0.1146
H_ H_ 0.184708 0.321024 0.305666 0.1146
H_ H_ 0.438166 0.0662549 0.315233 0.1146
H_ H_ 0.384491 0.303357 0.301365 0.1146
H_ H_ 0.14304 0.219732 0.140962 0.42917
H_ H_ 0.128881 0.461545 0.12548 0.42917
H_ H_ 0.390433 0.219524 0.138364 0.42917
H_ H_ 0.381825 0.46497 0.130309 0.42917
C_ C_ 0.238376 0.156205 0.222465 -0.12085
C_ C_ 0.241366 0.403078 0.217918 -0.12085
C_ C_ 0.494553 0.154575 0.221977 -0.12085
C_ C_ 0.491599 0.408812 0.224696 -0.12085
C_ C_ 0.0111409 0.197823 0.297415 0.6956
C_ C_ 0.0112046 0.444507 0.300424 0.6956
C_ C_ 0.258312 0.19554 0.301467 0.6956
C_ C_ 0.264054 0.445169 0.295392 0.6956
C_ C_ 0.240938 0.185899 0.254782 -0.16651
C_ C_ 0.243114 0.433137 0.250717 -0.16651
C_ C_ 0.49447 0.184881 0.25666 -0.16651
C_ C_ 0.487306 0.43484 0.258653 -0.16651
C_ C_ 0.206058 0.19785 0.20252 -0.12085
C_ C_ 0.20621 0.442798 0.199897 -0.12085
C_ C_ 0.461356 0.195423 0.202301 -0.12085
C_ C_ 0.448832 0.444793 0.207724 -0.12085
C_ C_ 0.218736 0.146947 0.180566 0.16698
C_ C_ 0.222682 0.394413 0.175376 0.16698
C_ C_ 0.472661 0.145031 0.180166 0.16698
C_ C_ 0.470562 0.398764 0.182563 0.16698
C_ C_ 0.183478 0.120967 0.11931 0.36401
C_ C_ 0.180666 0.366551 0.117887 0.36401
C_ C_ 0.430099 0.118373 0.124566 0.36401
C_ C_ 0.435018 0.372219 0.121558 0.36401
C_ C_ 0.203909 0.168055 0.171833 0.16698
C_ C_ 0.20603 0.415126 0.167183 0.16698
C_ C_ 0.460036 0.167278 0.17073 0.16698
C_ C_ 0.450342 0.416944 0.174797 0.16698
C_ C_ 0.226421 0.207007 0.242481 -0.12085
C_ C_ 0.222978 0.450862 0.241113 -0.12085
C_ C_ 0.476975 0.204395 0.246206 -0.12085
C_ C_ 0.464922 0.451554 0.248765 -0.12085
C_ C_ 0.172097 0.101311 0.0715029 0.15351
C_ C_ 0.154565 0.337658 0.0795708 0.15351
C_ C_ 0.407579 0.0897063 0.0844586 0.15351
C_ C_ 0.417274 0.345525 0.079848 0.15351
C_ C_ 0.137595 0.0667304 0.0625342 -0.35079
C_ C_ 0.116414 0.311064 0.0922547 -0.35079
C_ C_ 0.367774 0.0634108 0.0894965 -0.35079
C_ C_ 0.375751 0.318906 0.084297 -0.35079
C_ C_ 0.0815464 0.0992436 0.0253669 -0.12085
C_ C_ 0.0771696 0.344563 0.0229257 -0.12085
C_ C_ 0.328155 0.0999244 0.022761 -0.12085
C_ C_ 0.331753 0.346606 0.0238274 -0.12085
C_ C_ 0.0667557 0.0601095 0.449895 0.6956
C_ C_ 0.0657831 0.308104 0.445979 0.6956
C_ C_ 0.312543 0.0561064 0.452299 0.6956
C_ C_ 0.316949 0.304234 0.451935 0.6956
C_ C_ 0.0531118 0.0728949 0.492526 -0.16651
C_ C_ 0.0556561 0.319282 0.489995 -0.16651
C_ C_ 0.303211 0.0673766 0.497403 -0.16651
C_ C_ 0.306119 0.314849 0.498137 -0.16651
C_ C_ 0.255004 0.0566727 0.0431724 -0.12085
C_ C_ 0.256363 0.308079 0.039259 -0.12085
C_ C_ 0.505186 0.054009 0.0446244 -0.12085
C_ C_ 0.508629 0.310842 0.0455551 -0.12085
C_ C_ 0.0698504 0.110245 0.0660913 0.16698
C_ C_ 0.0642906 0.355077 0.0607838 0.16698
C_ C_ 0.316917 0.107775 0.0656185 0.16698
C_ C_ 0.317524 0.35839 0.063076 0.16698
C_ C_ 0.0660232 0.125998 0.133288 0.36401
C_ C_ 0.060791 0.371349 0.129207 0.36401
C_ C_ 0.312564 0.12428 0.130894 0.36401
C_ C_ 0.312959 0.375741 0.127287 0.36401
C_ C_ 0.0338131 0.0897267 0.0741647 0.16698
C_ C_ 0.0286096 0.334119 0.0706088 0.16698
C_ C_ 0.281458 0.0861322 0.0739212 0.16698
C_ C_ 0.282338 0.337939 0.0711332 0.16698
C_ C_ 0.0168457 0.0505943 0.503509 -0.12085
C_ C_ 0.0203794 0.296882 0.500414 -0.12085
C_ C_ 0.270457 0.0453609 0.509865 -0.12085
C_ C_ 0.272397 0.29187 0.510309 -0.12085
C_ C_ 0.078194 0.14449 0.179897 0.15351
C_ C_ 0.0752587 0.385899 0.176701 0.15351
C_ C_ 0.324595 0.140172 0.177635 0.15351
C_ C_ 0.325497 0.389914 0.176438 0.15351
C_ C_ 0.0805071 0.179715 0.19207 -0.35079
C_ C_ 0.0886132 0.423388 0.194692 -0.35079
C_ C_ 0.329541 0.177636 0.194915 -0.35079
C_ C_ 0.335736 0.428232 0.19725 -0.35079
C_ C_ 0.0120566 0.0971921 0.276649 -0.12085
C_ C_ 0.00922851 0.346541 0.279021 -0.12085
C_ C_ 0.259715 0.0951165 0.28127 -0.12085
C_ C_ 0.26423 0.346677 0.275162 -0.12085
C_ C_ 0.237523 0.053086 0.201597 0.6956
C_ C_ 0.239978 0.303787 0.198505 0.6956
C_ C_ 0.483449 0.0477851 0.200589 0.6956
C_ C_ 0.486708 0.303276 0.205221 0.6956
C_ C_ 0.0106658 0.0665602 0.244593 -0.16651
C_ C_ 0.00559525 0.31607 0.246776 -0.16651
C_ C_ 0.257398 0.0651495 0.247922 -0.16651
C_ C_ 0.259309 0.314848 0.244886 -0.16651
C_ C_ 0.0409232 0.0551193 0.30084 -0.12085
C_ C_ 0.043364 0.304079 0.296371 -0.12085
C_ C_ 0.30054 0.0575924 0.297915 -0.12085
C_ C_ 0.292605 0.304357 0.297937 -0.12085
C_ C_ 0.0289982 0.105454 0.320141 0.16698
C_ C_ 0.0303062 0.35446 0.318873 0.16698
C_ C_ 0.284983 0.106957 0.320694 0.16698
C_ C_ 0.280988 0.354227 0.317537 0.16698
C_ C_ 0.0636667 0.132092 0.380756 0.36401
C_ C_ 0.0694568 0.381696 0.377359 0.36401
C_ C_ 0.315922 0.130338 0.385375 0.36401
C_ C_ 0.315722 0.379823 0.378491 0.36401
C_ C_ 0.0419924 0.0839532 0.33119 0.16698
C_ C_ 0.0485587 0.334574 0.32593 0.16698
C_ C_ 0.303444 0.0875485 0.329703 0.16698
C_ C_ 0.294886 0.333702 0.328145 0.16698
C_ C_ 0.0251414 0.0471833 0.257652 -0.12085
C_ C_ 0.0242715 0.296588 0.256097 -0.12085
C_ C_ 0.280141 0.0476446 0.257777 -0.12085
C_ C_ 0.276547 0.296179 0.25701 -0.12085
C_ C_ 0.0917564 0.16159 0.419543 0.15351
C_ C_ 0.0972075 0.41066 0.416271 0.15351
C_ C_ 0.342872 0.161106 0.421982 0.15351
C_ C_ 0.345444 0.408521 0.416519 0.15351
C_ C_ 0.125335 0.187887 0.407095 -0.35079
C_ C_ 0.129804 0.440321 0.405677 -0.35079
C_ C_ 0.380678 0.188694 0.413457 -0.35079
C_ C_ 0.383367 0.431603 0.405264 -0.35079
C_ C_ 0.167347 0.15459 0.476304 -0.12085
C_ C_ 0.176734 0.403294 0.474654 -0.12085
C_ C_ 0.41946 0.153362 0.475393 -0.12085
C_ C_ 0.418476 0.39849 0.473408 -0.12085
C_ C_ 0.184666 0.193393 0.0497652 0.6956
C_ C_ 0.180612 0.444611 0.0501336 0.6956
C_ C_ 0.434169 0.191877 0.0539443 0.6956
C_ C_ 0.434936 0.442025 0.0522437 0.6956
C_ C_ 0.198286 0.183773 0.00700508 -0.16651
C_ C_ 0.190379 0.433523 0.00661047 -0.16651
C_ C_ 0.442916 0.180813 0.00744802 -0.16651
C_ C_ 0.445009 0.431559 0.00718695 -0.16651
C_ C_ 1.00333658 0.196175 0.459238 -0.12085
C_ C_ 0.995926 0.441319 0.455513 -0.12085
C_ C_ 0.243813 0.19695 0.460564 -0.12085
C_ C_ 0.248085 0.44939 0.456969 -0.12085
C_ C_ 0.180663 0.144506 0.436418 0.16698
C_ C_ 0.188627 0.393678 0.434223 0.16698
C_ C_ 0.431763 0.145973 0.434389 0.16698
C_ C_ 0.432546 0.388911 0.434282 0.16698
C_ C_ 0.184332 0.12858 0.369837 0.36401
C_ C_ 0.191353 0.380876 0.36907 0.36401
C_ C_ 0.436135 0.124127 0.368539 0.36401
C_ C_ 0.433007 0.374502 0.366153 0.36401
C_ C_ 0.217157 0.167409 0.428368 0.16698
C_ C_ 0.226592 0.416038 0.427833 0.16698
C_ C_ 0.467741 0.166209 0.424364 0.16698
C_ C_ 0.467633 0.409786 0.426837 0.16698
C_ C_ 0.233797 0.204599 0.995896 -0.12085
C_ C_ 0.227844 0.455208 0.994781 -0.12085
C_ C_ 0.480546 0.201029 -0.0022140000000000493 -0.12085
C_ C_ 0.483274 0.449497 0.99811838 -0.12085
C_ C_ 0.169988 0.113453 0.321045 0.15351
C_ C_ 0.175303 0.368294 0.322634 0.15351
C_ C_ 0.42288 0.109286 0.322123 0.15351
C_ C_ 0.417617 0.361151 0.317984 0.15351
C_ C_ 0.159162 0.0756539 0.300553 -0.35079
C_ C_ 0.1604 0.328967 0.300953 -0.35079
C_ C_ 0.412844 0.0707497 0.301664 -0.35079
C_ C_ 0.411129 0.323666 0.299385 -0.35079
N_ N_ 0.206512 0.116177 0.147849 -0.51457
N_ N_ 0.207784 0.363042 0.144728 -0.51457
N_ N_ 0.45652 0.113929 0.15001 -0.51457
N_ N_ 0.460858 0.369194 0.148885 -0.51457
N_ N_ 0.18319 0.153317 0.133261 -0.51457
N_ N_ 0.178509 0.397677 0.132196 -0.51457
N_ N_ 0.430906 0.150713 0.136979 -0.51457
N_ N_ 0.429571 0.402124 0.133913 -0.51457
N_ N_ 0.090844 0.135705 0.103931 -0.51457
N_ N_ 0.0861212 0.38037 0.098665 -0.51457
N_ N_ 0.338603 0.133271 0.102802 -0.51457
N_ N_ 0.339679 0.38355 0.0991315 -0.51457
N_ N_ 0.0297278 0.0983991 0.116241 -0.51457
N_ N_ 0.0251522 0.344252 0.11243 -0.51457
N_ N_ 0.27754 0.0954462 0.114839 -0.51457
N_ N_ 0.276289 0.347436 0.110563 -0.51457
N_ N_ 0.0414294 0.136186 0.352063 -0.51457
N_ N_ 0.0432394 0.385063 0.351377 -0.51457
N_ N_ 0.290839 0.133115 0.356229 -0.51457
N_ N_ 0.293573 0.38445 0.348885 -0.51457
N_ N_ 0.0663853 0.100123 0.367621 -0.51457
N_ N_ 0.0730227 0.350463 0.362878 -0.51457
N_ N_ 0.322237 0.100786 0.369864 -0.51457
N_ N_ 0.317261 0.348325 0.365337 -0.51457
N_ N_ 0.159362 0.119738 0.399191 -0.51457
N_ N_ 0.165571 0.370636 0.397445 -0.51457
N_ N_ 0.409264 0.118773 0.399179 -0.51457
N_ N_ 0.408528 0.364418 0.397195 -0.51457
N_ N_ 0.220989 0.156021 0.38674 -0.51457
N_ N_ 0.227152 0.407686 0.385775 -0.51457
N_ N_ 0.471279 0.153711 0.383419 -0.51457
N_ N_ 0.469214 0.403462 0.385238 -0.51457
O_ O_ 0.0242897 0.229531 0.322114 -0.61362
O_ O_ 0.0180292 0.474738 0.326926 -0.61362
O_ O_ 0.265903 0.226211 0.328801 -0.61362
O_ O_ 0.271627 0.476725 0.319846 -0.61362
O_ O_ 0.0621964 0.223595 0.380751 -0.98607
O_ O_ 0.0577371 0.467724 0.384046 -0.98607
O_ O_ 0.307763 0.218471 0.382935 -0.98607
O_ O_ 0.308824 0.46835 0.382828 -0.98607
O_ O_ 0.0154007 0.175204 0.311522 -0.61362
O_ O_ 0.0225412 0.423921 0.310987 -0.61362
O_ O_ 0.269726 0.175277 0.31469 -0.61362
O_ O_ 0.27203 0.424027 0.308316 -0.61362
O_ O_ 0.201911 0.0960819 0.0547733 -0.55956
O_ O_ 0.173712 0.32165 0.0577348 -0.55956
O_ O_ 0.429851 0.0756061 0.0682033 -0.55956
O_ O_ 0.437957 0.329995 0.0627759 -0.55956
O_ O_ 0.0440426 0.0308978 0.422722 -0.61362
O_ O_ 0.042558 0.277525 0.419786 -0.61362
O_ O_ 0.289225 0.0253461 0.425096 -0.61362
O_ O_ 0.294304 0.27261 0.426136 -0.61362
O_ O_ 0.0957653 0.0394922 0.377636 -0.98607
O_ O_ 0.0971014 0.288576 0.37089 -0.98607
O_ O_ 0.342618 0.0356829 0.368786 -0.98607
O_ O_ 0.340726 0.284074 0.365787 -0.98607
O_ O_ 0.0973819 0.0813766 0.43945 -0.61362
O_ O_ 0.0994087 0.32874 0.436223 -0.61362
O_ O_ 0.344973 0.0768838 0.441376 -0.61362
O_ O_ 0.341378 0.327554 0.436017 -0.61362
O_ O_ 0.112078 0.148159 0.194752 -0.55956
O_ O_ 0.103617 0.379114 0.187061 -0.55956
O_ O_ 0.357882 0.139798 0.186617 -0.55956
O_ O_ 0.354001 0.384552 0.186095 -0.55956
O_ O_ 0.226926 0.0213305 0.17739 -0.61362
O_ O_ 0.232872 0.272744 0.171236 -0.61362
O_ O_ 0.476729 0.0172126 0.17535 -0.61362
O_ O_ 0.480521 0.272448 0.178748 -0.61362
O_ O_ 0.189594 0.031885 0.119499 -0.98607
O_ O_ 0.19173 0.280489 0.116465 -0.98607
O_ O_ 0.439832 0.0297641 0.11664 -0.98607
O_ O_ 0.44712 0.283966 0.120116 -0.98607
O_ O_ 0.228622 0.0736301 0.187343 -0.61362
O_ O_ 0.238072 0.327555 0.185059 -0.61362
O_ O_ 0.476812 0.0692405 0.18696 -0.61362
O_ O_ 0.48195 0.326168 0.189699 -0.61362
O_ O_ 0.075024 0.174412 0.448292 -0.55956
O_ O_ 0.0789646 0.423298 0.443874 -0.55956
O_ O_ 0.323089 0.175715 0.441579 -0.55956
O_ O_ 0.330356 0.4292 0.434153 -0.55956
O_ O_ 0.208454 0.223762 0.0793144 -0.61362
O_ O_ 0.202414 0.476833 0.0769654 -0.61362
O_ O_ 0.453063 0.223713 0.0772934 -0.61362
O_ O_ 0.454388 0.474021 0.0761889 -0.61362
O_ O_ 0.160339 0.214414 0.131505 -0.98607
O_ O_ 0.1513 0.459537 0.125838 -0.98607
O_ O_ 0.40865 0.212918 0.131031 -0.98607
O_ O_ 0.40286 0.46253 0.125461 -0.98607
O_ O_ 0.155642 0.170463 0.0607191 -0.61362
O_ O_ 0.15167 0.421302 0.0620134 -0.61362
O_ O_ 0.413077 0.16843 0.070229 -0.61362
O_ O_ 0.403493 0.42153 0.0624046 -0.61362
O_ O_ 0.140095 0.117997 0.310589 -0.55956
O_ O_ 0.147507 0.374749 0.31655 -0.55956
O_ O_ 0.393024 0.114195 0.312128 -0.55956
O_ O_ 0.386762 0.366081 0.309438 -0.55956
Zn Zn 0.0217932 0.170062 0.861141 0.91541
Zn Zn 0.0212628 0.420847 0.862053 0.91541
Zn Zn 0.276622 0.174358 0.863996 0.91541
Zn Zn 0.270115 0.420889 0.861168 0.91541
Zn Zn 0.107934 0.0817916 0.884002 0.91541
Zn Zn 0.10203 0.328652 0.886555 0.91541
Zn Zn 0.350354 0.0791538 0.883168 0.91541
Zn Zn 0.35454 0.332357 0.88743 0.91541
Zn Zn 0.223418 0.0765355 0.638777 0.91541
Zn Zn 0.225492 0.325156 0.639171 0.91541
Zn Zn 0.474583 0.0801463 0.637715 0.91541
Zn Zn 0.475174 0.330112 0.637569 0.91541
Zn Zn 0.144795 0.168623 0.61707 0.91541
Zn Zn 0.146518 0.417502 0.613764 0.91541
Zn Zn 0.397249 0.173715 0.615779 0.91541
Zn Zn 0.396846 0.420183 0.616872 0.91541
Zn Zn 0.054764 0.00269522 0.873815 1.11764
Zn Zn 0.0508587 0.247741 0.873137 1.11764
Zn Zn 0.302701 0.000142481 0.87149 1.11764
Zn Zn 0.303841 0.252623 0.869677 1.11764
Zn Zn 0.201168 0.495995 0.623905 1.11764
Zn Zn 0.192505 0.244385 0.631438 1.11764
Zn Zn 0.447576 0.495883 0.626523 1.11764
Zn Zn 0.447393 0.251838 0.623297 1.11764
H_ H_ 0.251411 0.140973 0.727993 0.1146
H_ H_ 0.252259 0.389298 0.732152 0.1146
H_ H_ 0.503166 0.143919 0.730251 0.1146
H_ H_ 0.504466 0.392908 0.729541 0.1146
H_ H_ 0.18946 0.209599 0.696799 0.1146
H_ H_ 0.184742 0.452547 0.69347 0.1146
H_ H_ 0.450892 0.216618 0.693753 0.1146
H_ H_ 0.438927 0.463126 0.705135 0.1146
H_ H_ 0.225019 0.22752 0.767858 0.1146
H_ H_ 0.219882 0.475214 0.767612 0.1146
H_ H_ 0.469567 0.230388 0.773638 0.1146
H_ H_ 0.472718 0.477957 0.776342 0.1146
H_ H_ 0.176496 0.0655369 0.541845 0.42917
H_ H_ 0.182676 0.316013 0.542564 0.42917
H_ H_ 0.448766 0.0828066 0.539205 0.42917
H_ H_ 0.444579 0.32714 0.538745 0.42917
H_ H_ 0.139172 0.100811 0.569621 0.1146
H_ H_ 0.14678 0.350295 0.563807 0.1146
H_ H_ 0.409026 0.1127 0.559629 0.1146
H_ H_ 0.40261 0.360159 0.560894 0.1146
H_ H_ 0.090388 0.0684562 0.607317 0.1146
H_ H_ 0.101603 0.298148 0.572001 0.1146
H_ H_ 0.356535 0.0840553 0.600575 0.1146
H_ H_ 0.357685 0.328146 0.608295 0.1146
H_ H_ 0.100829 0.0346163 0.580324 0.1146
H_ H_ 0.127421 0.303367 0.619394 0.1146
H_ H_ 0.356989 0.0564212 0.551125 0.1146
H_ H_ 0.35761 0.302627 0.557661 0.1146
H_ H_ 0.124481 0.0603701 0.63379 0.1146
H_ H_ 0.105633 0.332319 0.622462 0.1146
H_ H_ 0.376575 0.0572355 0.60493 0.1146
H_ H_ 0.380618 0.298125 0.600321 0.1146
H_ H_ 0.0763594 0.220189 0.899728 0.42917
H_ H_ 0.0765169 0.471247 0.900933 0.42917
H_ H_ 0.328775 0.222509 0.896457 0.42917
H_ H_ 0.323977 0.472867 0.896778 0.42917
H_ H_ 0.107966 0.115662 0.525061 0.1146
H_ H_ 0.103603 0.370325 0.514888 0.1146
H_ H_ 0.355775 0.118032 0.521433 0.1146
H_ H_ 0.35255 0.36553 0.52038 0.1146
H_ H_ 0.229252 0.0391149 0.5553 0.1146
H_ H_ 0.234666 0.282763 0.557675 0.1146
H_ H_ 0.48128 0.0377723 0.553701 0.1146
H_ H_ 0.488474 0.28719 0.56164 0.1146
H_ H_ 0.242708 0.0256638 0.977271 0.1146
H_ H_ 0.247285 0.277131 0.973643 0.1146
H_ H_ 0.493901 0.0221878 0.98117 0.1146
H_ H_ 0.497247 0.277303 0.982735 0.1146
H_ H_ 0.125481 0.140079 0.700752 0.42917
H_ H_ 0.128746 0.375975 0.676502 0.42917
H_ H_ 0.381087 0.139349 0.697413 0.42917
H_ H_ 0.379998 0.412586 0.719418 0.42917
H_ H_ 0.0473337 0.126676 0.693374 0.1146
H_ H_ 0.0596333 0.375166 0.692105 0.1146
H_ H_ 0.302068 0.128796 0.69438 0.1146
H_ H_ 0.30433 0.381995 0.701075 0.1146
H_ H_ 0.0749443 0.185511 0.727846 0.1146
H_ H_ 0.0670835 0.433457 0.691302 0.1146
H_ H_ 0.374283 0.192548 0.688736 0.1146
H_ H_ 0.306254 0.43364 0.668423 0.1146
H_ H_ 0.104377 0.195456 0.688292 0.1146
H_ H_ 0.100484 0.438821 0.730869 0.1146
H_ H_ 0.324742 0.189536 0.69343 0.1146
H_ H_ 0.314851 0.438961 0.723506 0.1146
H_ H_ 0.049907 0.176082 0.675752 0.1146
H_ H_ 0.119046 0.443536 0.682812 0.1146
H_ H_ 0.350089 0.186523 0.735569 0.1146
H_ H_ 0.352458 0.45207 0.694761 0.1146
H_ H_ 0.118177 0.034336 0.862524 0.42917
H_ H_ 0.113964 0.280933 0.877377 0.42917
H_ H_ 0.365199 0.0320528 0.86041 0.42917
H_ H_ 0.362031 0.284136 0.85112 0.42917
H_ H_ 0.00610108 0.112758 0.770611 0.1146
H_ H_ -0.008781000000000039 0.354103 0.771694 0.1146
H_ H_ 0.244283 0.109165 0.765974 0.1146
H_ H_ 0.248539 0.358145 0.769483 0.1146
H_ H_ 0.0516371 0.0323008 0.801421 0.1146
H_ H_ 0.063575 0.291016 0.80599 0.1146
H_ H_ 0.305612 0.0391974 0.804281 0.1146
H_ H_ 0.314019 0.292236 0.805635 0.1146
H_ H_ 0.0188495 0.0176621 0.735604 0.1146
H_ H_ 0.0296334 0.271622 0.730337 0.1146
H_ H_ 0.272377 0.0204145 0.734029 0.1146
H_ H_ 0.27184 0.26873 0.734896 0.1146
H_ H_ 0.0485765 0.167083 0.944648 0.42917
H_ H_ 0.0526686 0.432049 0.955132 0.42917
H_ H_ 0.315033 0.177436 0.960451 0.42917
H_ H_ 0.309236 0.428316 0.964789 0.42917
H_ H_ 0.106 0.146919 0.936474 0.1146
H_ H_ 0.0942072 0.398013 0.939445 0.1146
H_ H_ 0.350334 0.142614 0.931132 0.1146
H_ H_ 0.346065 0.39592 0.942573 0.1146
H_ H_ 0.118226 0.194192 0.885549 0.1146
H_ H_ 0.144536 0.422805 0.898095 0.1146
H_ H_ 0.39315 0.168261 0.886206 0.1146
H_ H_ 0.393028 0.422821 0.897933 0.1146
H_ H_ 0.146285 0.17137 0.887098 0.1146
H_ H_ 0.141387 0.458311 0.93678 0.1146
H_ H_ 0.391185 0.204193 0.926305 0.1146
H_ H_ 0.391513 0.454097 0.940779 0.1146
H_ H_ 0.149073 0.206447 0.934923 0.1146
H_ H_ 0.121875 0.442402 0.881236 0.1146
H_ H_ 0.366717 0.189836 0.871516 0.1146
H_ H_ 0.369006 0.44678 0.891145 0.1146
H_ H_ 0.169638 0.0257638 0.597179 0.42917
H_ H_ 0.174419 0.275152 0.600692 0.42917
H_ H_ 0.423073 0.0297369 0.6017 0.42917
H_ H_ 0.429842 0.278888 0.592745 0.42917
H_ H_ 0.142483 0.136386 0.9768 0.1146
H_ H_ 0.13665 0.390636 0.980914 0.1146
H_ H_ 0.385829 0.137403 0.974324 0.1146
H_ H_ 0.388791 0.387267 0.979901 0.1146
H_ H_ 0.0177175 0.211357 0.942434 0.1146
H_ H_ 0.0100369 0.464169 0.939972 0.1146
H_ H_ 0.271784 0.2121 0.946797 0.1146
H_ H_ 0.260102 0.46528 0.945122 0.1146
H_ H_ 0.0125517 0.226074 0.526658 0.1146
H_ H_ 0.00363979 0.476023 0.518685 0.1146
H_ H_ 0.254686 0.226507 0.526462 0.1146
H_ H_ 0.251261 0.479805 0.519578 0.1146
H_ H_ 0.134972 0.123011 0.794693 0.42917
H_ H_ 0.128268 0.351349 0.791277 0.42917
H_ H_ 0.376467 0.127111 0.799494 0.42917
H_ H_ 0.382434 0.376036 0.816599 0.42917
H_ H_ 0.201284 0.125068 0.803154 0.1146
H_ H_ 0.197046 0.369737 0.808004 0.1146
H_ H_ 0.44368 0.125404 0.804281 0.1146
H_ H_ 0.452207 0.37516 0.808294 0.1146
H_ H_ 0.184997 0.0678639 0.827362 0.1146
H_ H_ 0.197356 0.316092 0.830409 0.1146
H_ H_ 0.399762 0.0690152 0.765081 0.1146
H_ H_ 0.427435 0.317782 0.770945 0.1146
H_ H_ 0.173129 0.063285 0.772907 0.1146
H_ H_ 0.170402 0.304098 0.779789 0.1146
H_ H_ 0.370564 0.0604527 0.810472 0.1146
H_ H_ 0.38969 0.308223 0.805473 0.1146
H_ H_ 0.134467 0.0574297 0.806571 0.1146
H_ H_ 0.145347 0.302071 0.827575 0.1146
H_ H_ 0.417169 0.0640347 0.808192 0.1146
H_ H_ 0.436971 0.315898 0.821673 0.1146
H_ H_ 0.127558 0.214482 0.62985 0.42917
H_ H_ 0.137058 0.463239 0.627429 0.42917
H_ H_ 0.385153 0.223991 0.631926 0.42917
H_ H_ 0.386103 0.465189 0.629827 0.42917
C_ C_ 0.23749 0.156151 0.723885 -0.12085
C_ C_ 0.240404 0.405626 0.724762 -0.12085
C_ C_ 0.485779 0.155469 0.725596 -0.12085
C_ C_ 0.487107 0.406411 0.726538 -0.12085
C_ C_ 0.0142556 0.197445 0.796792 0.6956
C_ C_ 0.0172742 0.446429 0.79905 0.6956
C_ C_ 0.26736 0.200565 0.798605 0.6956
C_ C_ 0.263472 0.446619 0.798546 0.6956
C_ C_ 0.243891 0.18774 0.755908 -0.16651
C_ C_ 0.242302 0.435531 0.755257 -0.16651
C_ C_ 0.488009 0.18731 0.759582 -0.16651
C_ C_ 0.492218 0.436635 0.759293 -0.16651
C_ C_ 0.203729 0.195915 0.705695 -0.12085
C_ C_ 0.205463 0.443435 0.702807 -0.12085
C_ C_ 0.456432 0.199753 0.70528 -0.12085
C_ C_ 0.454175 0.447561 0.709567 -0.12085
C_ C_ 0.218728 0.146743 0.682826 0.16698
C_ C_ 0.221675 0.395844 0.682656 0.16698
C_ C_ 0.46601 0.146906 0.6849 0.16698
C_ C_ 0.468825 0.398821 0.685589 0.16698
C_ C_ 0.17881 0.118429 0.625914 0.36401
C_ C_ 0.186409 0.368708 0.621913 0.36401
C_ C_ 0.433569 0.123681 0.623291 0.36401
C_ C_ 0.43481 0.373565 0.624594 0.36401
C_ C_ 0.200154 0.16543 0.67533 0.16698
C_ C_ 0.208346 0.416586 0.670899 0.16698
C_ C_ 0.447776 0.166754 0.678056 0.16698
C_ C_ 0.453238 0.420047 0.678321 0.16698
C_ C_ 0.226198 0.206746 0.744933 -0.12085
C_ C_ 0.221843 0.452877 0.744533 -0.12085
C_ C_ 0.471233 0.207325 0.749285 -0.12085
C_ C_ 0.474345 0.456418 0.750012 -0.12085
C_ C_ 0.150676 0.0881535 0.58807 0.15351
C_ C_ 0.15675 0.340324 0.586743 0.15351
C_ C_ 0.414343 0.0987832 0.579634 0.15351
C_ C_ 0.412082 0.3463 0.581198 0.15351
C_ C_ 0.1155 0.0615333 0.602509 -0.35079
C_ C_ 0.120323 0.317792 0.601252 -0.35079
C_ C_ 0.373864 0.0713406 0.583668 -0.35079
C_ C_ 0.376353 0.316958 0.589215 -0.35079
C_ C_ 0.0797354 0.101848 0.527208 -0.12085
C_ C_ 0.0806605 0.351452 0.524002 -0.12085
C_ C_ 0.328236 0.102146 0.528008 -0.12085
C_ C_ 0.329292 0.347281 0.52885 -0.12085
C_ C_ 0.065847 0.0582113 0.949937 0.6956
C_ C_ 0.061833 0.303311 0.947585 0.6956
C_ C_ 0.313348 0.0562979 0.946058 0.6956
C_ C_ 0.317497 0.307497 0.945714 0.6956
C_ C_ 0.053386 0.0715285 0.991411 -0.16651
C_ C_ 0.0504805 0.315073 0.990106 -0.16651
C_ C_ 0.30176 0.0685202 0.990287 -0.16651
C_ C_ 0.305945 0.320382 0.98954 -0.16651
C_ C_ 0.255914 0.0575285 0.547018 -0.12085
C_ C_ 0.258462 0.302399 0.549241 -0.12085
C_ C_ 0.507928 0.0566929 0.54539 -0.12085
C_ C_ 0.509472 0.30539 0.548242 -0.12085
C_ C_ 0.0659482 0.110202 0.567243 0.16698
C_ C_ 0.0676945 0.3595 0.563782 0.16698
C_ C_ 0.314819 0.1133 0.566661 0.16698
C_ C_ 0.318313 0.355322 0.569611 0.16698
C_ C_ 0.0612912 0.125113 0.633695 0.36401
C_ C_ 0.0660065 0.374283 0.630343 0.36401
C_ C_ 0.311894 0.128056 0.63431 0.36401
C_ C_ 0.314039 0.375166 0.636297 0.36401
C_ C_ 0.0312523 0.0876293 0.576434 0.16698
C_ C_ 0.033405 0.336531 0.57322 0.16698
C_ C_ 0.278255 0.0901634 0.575316 0.16698
C_ C_ 0.282793 0.335156 0.579355 0.16698
C_ C_ 0.0167635 0.0506823 0.00205893 -0.12085
C_ C_ 0.0164559 0.292702 0.00213196 -0.12085
C_ C_ 0.264268 0.0475376 0.0019599999999999618 -0.12085
C_ C_ 0.268237 0.299819 0.998684 -0.12085
C_ C_ 0.073642 0.142636 0.68048 0.15351
C_ C_ 0.0822349 0.38991 0.677824 0.15351
C_ C_ 0.327201 0.139415 0.678332 0.15351
C_ C_ 0.325204 0.396287 0.682542 0.15351
C_ C_ 0.0755085 0.176934 0.692868 -0.35079
C_ C_ 0.0938428 0.427976 0.696466 -0.35079
C_ C_ 0.344255 0.179326 0.698739 -0.35079
C_ C_ 0.325006 0.431249 0.691427 -0.35079
C_ C_ 0.0124858 0.0936665 0.775807 -0.12085
C_ C_ 0.00677793 0.34168 0.778344 -0.12085
C_ C_ 0.26 0.0942889 0.772904 -0.12085
C_ C_ 0.262764 0.345245 0.778324 -0.12085
C_ C_ 0.232563 0.0497128 0.697557 0.6956
C_ C_ 0.233424 0.299513 0.703255 0.6956
C_ C_ 0.486344 0.0563737 0.703008 0.6956
C_ C_ 0.482957 0.300961 0.700358 0.6956
C_ C_ 0.0069304 0.0622173 0.743566 -0.16651
C_ C_ 0.00781555 0.313312 0.745399 -0.16651
C_ C_ 0.254471 0.0619158 0.742004 -0.16651
C_ C_ 0.257556 0.312067 0.746597 -0.16651
C_ C_ 0.038117 0.0498419 0.796361 -0.12085
C_ C_ 0.0503873 0.305702 0.794538 -0.12085
C_ C_ 0.289909 0.0523278 0.79825 -0.12085
C_ C_ 0.297229 0.304438 0.797675 -0.12085
C_ C_ 0.0259262 0.0999495 0.819909 0.16698
C_ C_ 0.0308911 0.353235 0.81623 0.16698
C_ C_ 0.277432 0.101643 0.815907 0.16698
C_ C_ 0.285484 0.356922 0.816776 0.16698
C_ C_ 0.0678345 0.127881 0.877196 0.36401
C_ C_ 0.0634792 0.379733 0.877461 0.36401
C_ C_ 0.311523 0.126844 0.878452 0.36401
C_ C_ 0.315269 0.380336 0.879334 0.36401
C_ C_ 0.043359 0.0803442 0.828344 0.16698
C_ C_ 0.0520472 0.335866 0.824133 0.16698
C_ C_ 0.294782 0.082621 0.826472 0.16698
C_ C_ 0.303027 0.336927 0.825838 0.16698
C_ C_ 0.0222368 0.0425297 0.756511 -0.12085
C_ C_ 0.0286153 0.294777 0.753563 -0.12085
C_ C_ 0.273149 0.0433398 0.755582 -0.12085
C_ C_ 0.276056 0.292898 0.756852 -0.12085
C_ C_ 0.0931542 0.156365 0.917106 0.15351
C_ C_ 0.0867301 0.409998 0.91752 0.15351
C_ C_ 0.340711 0.156723 0.913401 0.15351
C_ C_ 0.336133 0.407693 0.920988 0.15351
C_ C_ 0.128235 0.18423 0.906006 -0.35079
C_ C_ 0.124946 0.436099 0.909011 -0.35079
C_ C_ 0.373978 0.180635 0.898474 -0.35079
C_ C_ 0.373341 0.434035 0.911282 -0.35079
C_ C_ 0.173215 0.151044 0.976151 -0.12085
C_ C_ 0.166082 0.401489 0.975999 -0.12085
C_ C_ 0.416947 0.150088 0.972771 -0.12085
C_ C_ 0.419819 0.399622 0.97578 -0.12085
C_ C_ 0.180143 0.194742 0.55162 0.6956
C_ C_ 0.194175 0.443964 0.551904 0.6956
C_ C_ 0.432728 0.196811 0.551144 0.6956
C_ C_ 0.435637 0.441347 0.551694 0.6956
C_ C_ 0.194286 0.184462 0.509037 -0.16651
C_ C_ 0.202169 0.43309 0.507184 -0.16651
C_ C_ 0.445676 0.184988 0.50771 -0.16651
C_ C_ 0.443357 0.429977 0.50695 -0.16651
C_ C_ 0.993029 0.194341 0.953561 -0.12085
C_ C_ 0.988772 0.445594 0.95253 -0.12085
C_ C_ 0.246293 0.194628 0.957329 -0.12085
C_ C_ 0.238442 0.445411 0.95561 -0.12085
C_ C_ 0.186893 0.140126 0.935664 0.16698
C_ C_ 0.181144 0.391111 0.935927 0.16698
C_ C_ 0.429564 0.137609 0.935075 0.16698
C_ C_ 0.431998 0.391125 0.934754 0.16698
C_ C_ 0.186845 0.129063 0.86717 0.36401
C_ C_ 0.186559 0.371351 0.87216 0.36401
C_ C_ 0.43195 0.125484 0.869225 0.36401
C_ C_ 0.436311 0.376801 0.869144 0.36401
C_ C_ 0.223414 0.161983 0.927883 0.16698
C_ C_ 0.218013 0.411756 0.929012 0.16698
C_ C_ 0.466278 0.157921 0.928664 0.16698
C_ C_ 0.469803 0.411069 0.926874 0.16698
C_ C_ 0.233743 0.203216 0.501961 -0.12085
C_ C_ 0.23651 0.455951 0.497786 -0.12085
C_ C_ 0.480296 0.208257 0.496583 -0.12085
C_ C_ 0.479318 0.451179 0.496145 -0.12085
C_ C_ 0.177036 0.111436 0.818965 0.15351
C_ C_ 0.175384 0.354426 0.824415 0.15351
C_ C_ 0.418304 0.114092 0.82098 0.15351
C_ C_ 0.426597 0.360201 0.821833 0.15351
C_ C_ 0.166385 0.0722622 0.804559 -0.35079
C_ C_ 0.172792 0.317699 0.8144 -0.35079
C_ C_ 0.3992 0.074073 0.798492 -0.35079
C_ C_ 0.42005 0.323455 0.802505 -0.35079
N_ N_ 0.203416 0.11433 0.651975 -0.51457
N_ N_ 0.208079 0.364447 0.652664 -0.51457
N_ N_ 0.457509 0.119 0.649734 -0.51457
N_ N_ 0.45833 0.36928 0.651437 -0.51457
N_ N_ 0.175629 0.149138 0.639932 -0.51457
N_ N_ 0.184267 0.400777 0.635304 -0.51457
N_ N_ 0.428369 0.154164 0.639198 -0.51457
N_ N_ 0.430359 0.404064 0.640387 -0.51457
N_ N_ 0.0871468 0.133956 0.604021 -0.51457
N_ N_ 0.0900488 0.383597 0.600327 -0.51457
N_ N_ 0.338082 0.137521 0.604276 -0.51457
N_ N_ 0.340096 0.38311 0.605808 -0.51457
N_ N_ 0.0267177 0.0959716 0.618046 -0.51457
N_ N_ 0.0313898 0.345525 0.615302 -0.51457
N_ N_ 0.275908 0.0995408 0.615865 -0.51457
N_ N_ 0.27807 0.346129 0.620537 -0.51457
N_ N_ 0.0416005 0.13177 0.851535 -0.51457
N_ N_ 0.038842 0.38178 0.85064 -0.51457
N_ N_ 0.287361 0.129946 0.850475 -0.51457
N_ N_ 0.292793 0.384791 0.850302 -0.51457
N_ N_ 0.0706692 0.0969091 0.863888 -0.51457
N_ N_ 0.0732143 0.351788 0.863536 -0.51457
N_ N_ 0.314378 0.0972538 0.865171 -0.51457
N_ N_ 0.321727 0.351763 0.86595 -0.51457
N_ N_ 0.163348 0.118694 0.897189 -0.51457
N_ N_ 0.160725 0.364151 0.90034 -0.51457
N_ N_ 0.406267 0.115923 0.89776 -0.51457
N_ N_ 0.409755 0.367486 0.898191 -0.51457
N_ N_ 0.22407 0.154726 0.885359 -0.51457
N_ N_ 0.222531 0.399714 0.888158 -0.51457
N_ N_ 0.468278 0.152745 0.886828 -0.51457
N_ N_ 0.472257 0.404636 0.885746 -0.51457
O_ O_ 0.0188411 0.226141 0.823409 -0.61362
O_ O_ 0.0143705 0.473039 0.82659 -0.61362
O_ O_ 0.269249 0.229233 0.82462 -0.61362
O_ O_ 0.269747 0.477429 0.82595 -0.61362
O_ O_ 0.0568794 0.215323 0.881272 -0.98607
O_ O_ 0.0569438 0.465457 0.880914 -0.98607
O_ O_ 0.307667 0.21765 0.881383 -0.98607
O_ O_ 0.301376 0.465884 0.884062 -0.98607
O_ O_ 0.0142877 0.17416 0.810193 -0.61362
O_ O_ 0.02494 0.424892 0.811574 -0.61362
O_ O_ 0.275699 0.17854 0.811411 -0.61362
O_ O_ 0.27255 0.425026 0.810332 -0.61362
O_ O_ 0.16754 0.0713333 0.564988 -0.55956
O_ O_ 0.172106 0.320754 0.565126 -0.55956
O_ O_ 0.434618 0.0842476 0.559799 -0.55956
O_ O_ 0.432608 0.333589 0.55981 -0.55956
O_ O_ 0.0461277 0.0262532 0.925599 -0.61362
O_ O_ 0.037779 0.272428 0.919902 -0.61362
O_ O_ 0.290914 0.0241536 0.917946 -0.61362
O_ O_ 0.293973 0.276438 0.919132 -0.61362
O_ O_ 0.0971809 0.0374671 0.870832 -0.98607
O_ O_ 0.0927862 0.284073 0.874871 -0.98607
O_ O_ 0.343504 0.0345182 0.866703 -0.98607
O_ O_ 0.3426 0.28699 0.864581 -0.98607
O_ O_ 0.0932734 0.0808865 0.935305 -0.61362
O_ O_ 0.0919234 0.32585 0.936525 -0.61362
O_ O_ 0.344423 0.0771378 0.935668 -0.61362
O_ O_ 0.350924 0.326788 0.936802 -0.61362
O_ O_ 0.103184 0.141844 0.700515 -0.55956
O_ O_ 0.110586 0.383386 0.687203 -0.55956
O_ O_ 0.357253 0.132838 0.685337 -0.55956
O_ O_ 0.360279 0.401749 0.697763 -0.55956
O_ O_ 0.231823 0.0216077 0.669803 -0.61362
O_ O_ 0.229761 0.270188 0.675606 -0.61362
O_ O_ 0.479387 0.0263925 0.6758 -0.61362
O_ O_ 0.473727 0.269101 0.674504 -0.61362
O_ O_ 0.188127 0.0313261 0.616806 -0.98607
O_ O_ 0.191402 0.280061 0.621605 -0.98607
O_ O_ 0.443798 0.0363694 0.619795 -0.98607
O_ O_ 0.444644 0.28558 0.615747 -0.98607
O_ O_ 0.218566 0.0688731 0.687265 -0.61362
O_ O_ 0.228472 0.322085 0.690495 -0.61362
O_ O_ 0.482878 0.0798701 0.689732 -0.61362
O_ O_ 0.481333 0.325178 0.687301 -0.61362
O_ O_ 0.0726417 0.169964 0.939089 -0.55956
O_ O_ 0.065912 0.42545 0.935235 -0.55956
O_ O_ 0.324188 0.174144 0.936202 -0.55956
O_ O_ 0.31508 0.420669 0.939899 -0.55956
O_ O_ 0.200815 0.225759 0.579811 -0.61362
O_ O_ 0.215144 0.476197 0.579116 -0.61362
O_ O_ 0.458174 0.22538 0.577279 -0.61362
O_ O_ 0.457427 0.473032 0.577153 -0.61362
O_ O_ 0.147601 0.210338 0.630852 -0.98607
O_ O_ 0.158541 0.460869 0.623802 -0.98607
O_ O_ 0.405041 0.218372 0.628065 -0.98607
O_ O_ 0.407343 0.462849 0.628191 -0.98607
O_ O_ 0.153634 0.171024 0.564887 -0.61362
O_ O_ 0.166306 0.420779 0.562861 -0.61362
O_ O_ 0.401824 0.174445 0.563988 -0.61362
O_ O_ 0.406663 0.419023 0.56443 -0.61362
O_ O_ 0.145872 0.112425 0.804844 -0.55956
O_ O_ 0.144122 0.354587 0.81168 -0.55956
O_ O_ 0.39386 0.125824 0.816215 -0.55956
O_ O_ 0.397266 0.365617 0.811719 -0.55956
Zn Zn 0.0246853 0.673369 0.361688 0.91541
Zn Zn 0.0265042 0.924701 0.363658 0.91541
Zn Zn 0.272557 0.672751 0.364455 0.91541
Zn Zn 0.275154 0.922181 0.362478 0.91541
Zn Zn 0.101726 0.579834 0.38658 0.91541
Zn Zn 0.103264 0.829599 0.384254 0.91541
Zn Zn 0.352347 0.580324 0.385485 0.91541
Zn Zn 0.357011 0.832548 0.386974 0.91541
Zn Zn 0.221034 0.572474 0.137332 0.91541
Zn Zn 0.222331 0.826406 0.134189 0.91541
Zn Zn 0.475977 0.578197 0.14192 0.91541
Zn Zn 0.476265 0.826763 0.137219 0.91541
Zn Zn 0.146012 0.670172 0.109112 0.91541
Zn Zn 0.14342 0.918475 0.113884 0.91541
Zn Zn 0.394378 0.670256 0.114956 0.91541
Zn Zn 0.397888 0.918321 0.114126 0.91541
Zn Zn 0.0531794 0.49966 0.372808 1.11764
Zn Zn 0.0498037 0.749292 0.373913 1.11764
Zn Zn 0.302596 0.49974 0.370609 1.11764
Zn Zn 0.305771 0.754471 0.375885 1.11764
Zn Zn 0.196113 0.995932 0.124938 1.11764
Zn Zn 0.19907 0.750346 0.123247 1.11764
Zn Zn 0.449097 -0.0030879999999999797 0.12632 1.11764
Zn Zn 0.446895 0.747312 0.124538 1.11764
H_ H_ 0.247902 0.638745 0.230604 0.1146
H_ H_ 0.255705 0.891139 0.223712 0.1146
H_ H_ 0.491247 0.634552 0.233469 0.1146
H_ H_ 0.502647 0.889479 0.229512 0.1146
H_ H_ 0.185898 0.706523 0.196537 0.1146
H_ H_ 0.20498 0.96296 0.187657 0.1146
H_ H_ 0.441853 0.708195 0.195549 0.1146
H_ H_ 0.433638 0.953121 0.195547 0.1146
H_ H_ 0.228702 0.729357 0.263787 0.1146
H_ H_ 0.240175 0.982142 0.264565 0.1146
H_ H_ 0.469096 0.723551 0.269593 0.1146
H_ H_ 0.466445 0.970712 0.268903 0.1146
H_ H_ 0.182225 0.570923 0.0317639 0.42917
H_ H_ 0.242696 0.879862 0.0591622 0.42917
H_ H_ 0.435487 0.571269 0.0387679 0.42917
H_ H_ 0.43388 0.814493 0.0369981 0.42917
H_ H_ 0.154666 0.609438 0.0619179 0.1146
H_ H_ 0.167889 0.868178 0.0512475 0.1146
H_ H_ 0.397252 0.602267 0.0615811 0.1146
H_ H_ 0.39946 0.851064 0.0627902 0.1146
H_ H_ 0.102085 0.577298 0.105429 0.1146
H_ H_ 0.156473 0.811924 0.0155457 0.1146
H_ H_ 0.355116 0.58283 0.113759 0.1146
H_ H_ 0.344022 0.815719 0.0964805 0.1146
H_ H_ 0.099259 0.549214 0.0528119 0.1146
H_ H_ 0.17823 0.807281 0.0594415 0.1146
H_ H_ 0.351478 0.54866 0.0640073 0.1146
H_ H_ 0.355883 0.785902 0.0583174 0.1146
H_ H_ 0.122708 0.548665 0.0988821 0.1146
H_ H_ 0.133032 0.811836 0.0658425 0.1146
H_ H_ 0.375836 0.556803 0.116835 0.1146
H_ H_ 0.377635 0.799755 0.110434 0.1146
H_ H_ 0.0784022 0.724164 0.400552 0.42917
H_ H_ 0.0767711 0.973718 0.402522 0.42917
H_ H_ 0.329511 0.719844 0.390922 0.42917
H_ H_ 0.329901 0.974977 0.398146 0.42917
H_ H_ 0.108918 0.610685 0.0243831 0.1146
H_ H_ 0.110744 0.860443 0.0288104 0.1146
H_ H_ 0.355935 0.616616 0.021335 0.1146
H_ H_ 0.356913 0.858591 0.0208965 0.1146
H_ H_ 0.232652 0.533135 0.0544148 0.1146
H_ H_ 0.234142 0.785279 0.0580711 0.1146
H_ H_ 0.490422 0.533963 0.0651456 0.1146
H_ H_ 0.482448 0.787446 0.0495491 0.1146
H_ H_ 0.245631 0.522867 0.478804 0.1146
H_ H_ 0.247487 0.769784 0.479435 0.1146
H_ H_ 0.494055 0.524423 0.483117 0.1146
H_ H_ 0.492383 0.77 0.481887 0.1146
H_ H_ 0.118914 0.620943 0.179911 0.42917
H_ H_ 0.0965493 0.852951 0.181343 0.42917
H_ H_ 0.371214 0.638574 0.183264 0.42917
H_ H_ 0.368535 0.871807 0.191136 0.42917
H_ H_ 0.0514281 0.62744 0.197541 0.1146
H_ H_ 0.047059 0.878776 0.195765 0.1146
H_ H_ 0.290965 0.627302 0.193221 0.1146
H_ H_ 0.30419 0.874228 0.198185 0.1146
H_ H_ 0.115631 0.692538 0.189948 0.1146
H_ H_ 0.0883661 0.941771 0.192169 0.1146
H_ H_ 0.317985 0.683403 0.224587 0.1146
H_ H_ 0.326975 0.933824 0.230663 0.1146
H_ H_ 0.0674841 0.687769 0.199057 0.1146
H_ H_ 0.0984094 0.928709 0.237059 0.1146
H_ H_ 0.358231 0.697048 0.192395 0.1146
H_ H_ 0.364423 0.943732 0.197623 0.1146
H_ H_ 0.0967637 0.684222 0.237064 0.1146
H_ H_ 0.128893 0.927486 0.189932 0.1146
H_ H_ 0.305593 0.684381 0.173952 0.1146
H_ H_ 0.318081 0.933767 0.180549 0.1146
H_ H_ 0.115315 0.533366 0.373875 0.42917
H_ H_ 0.110232 0.781237 0.36164 0.42917
H_ H_ 0.361842 0.531427 0.354754 0.42917
H_ H_ 0.363312 0.782884 0.357114 0.42917
H_ H_ 0.997576 0.610485 0.272023 0.1146
H_ H_ 1.00586 0.863683 0.268819 0.1146
H_ H_ 0.241911 0.609412 0.277808 0.1146
H_ H_ 0.251342 0.861265 0.267566 0.1146
H_ H_ 0.0583566 0.540206 0.308144 0.1146
H_ H_ 0.0682386 0.79656 0.304592 0.1146
H_ H_ 0.294926 0.535569 0.312995 0.1146
H_ H_ 0.32252 0.797142 0.297935 0.1146
H_ H_ 0.0175423 0.518107 0.233549 0.1146
H_ H_ 0.0246514 0.772369 0.235413 0.1146
H_ H_ 0.270435 0.519103 0.238937 0.1146
H_ H_ 0.278137 0.772223 0.231138 0.1146
H_ H_ 0.0762757 0.685089 0.458603 0.42917
H_ H_ 0.0623597 0.933565 0.457554 0.42917
H_ H_ 0.301459 0.674259 0.450175 0.42917
H_ H_ 0.306081 0.920891 0.461638 0.42917
H_ H_ 0.109985 0.649719 0.430278 0.1146
H_ H_ 0.0997744 0.899957 0.439093 0.1146
H_ H_ 0.345035 0.64443 0.439891 0.1146
H_ H_ 0.352588 0.898414 0.442301 0.1146
H_ H_ 0.120674 0.691891 0.369492 0.1146
H_ H_ 0.154794 0.952656 0.435866 0.1146
H_ H_ 0.400274 0.673976 0.395197 0.1146
H_ H_ 0.368046 0.945375 0.385744 0.1146
H_ H_ 0.153067 0.676124 0.386201 0.1146
H_ H_ 0.129802 0.95094 0.386689 0.1146
H_ H_ 0.394423 0.703115 0.44272 0.1146
H_ H_ 0.398426 0.927951 0.402431 0.1146
H_ H_ 0.144774 0.705819 0.423582 0.1146
H_ H_ 0.143328 0.917847 0.382028 0.1146
H_ H_ 0.370097 0.693503 0.387261 0.1146
H_ H_ 0.39546 0.961668 0.44028 0.1146
H_ H_ 0.163886 0.524927 0.112528 0.42917
H_ H_ 0.166535 0.773958 0.103638 0.42917
H_ H_ 0.42303 0.528875 0.101161 0.42917
H_ H_ 0.428036 0.775396 0.0934197 0.42917
H_ H_ 0.14139 0.637094 0.477796 0.1146
H_ H_ 0.136277 0.88716 0.478538 0.1146
H_ H_ 0.391605 0.635465 0.479918 0.1146
H_ H_ 0.398438 0.884976 0.48311 0.1146
H_ H_ 0.0196917 0.71215 0.449099 0.1146
H_ H_ 0.0150426 0.96554 0.441116 0.1146
H_ H_ 0.26996 0.707452 0.43883 0.1146
H_ H_ 0.272215 0.957069 0.455741 0.1146
H_ H_ 1.00184009 0.732066 0.0203842 0.1146
H_ H_ 0.00623834 0.983933 0.0184905 0.1146
H_ H_ 0.252798 0.728315 0.0154922 0.1146
H_ H_ 0.248992 0.975732 0.0149174 0.1146
H_ H_ 0.117174 0.610971 0.289693 0.42917
H_ H_ 0.123763 0.851317 0.302474 0.42917
H_ H_ 0.37277 0.621583 0.303156 0.42917
H_ H_ 0.388722 0.885024 0.31293 0.42917
H_ H_ 0.190599 0.623122 0.297611 0.1146
H_ H_ 0.197497 0.868517 0.306803 0.1146
H_ H_ 0.44429 0.624904 0.30291 0.1146
H_ H_ 0.45151 0.877578 0.305178 0.1146
H_ H_ 0.172912 0.562908 0.313498 0.1146
H_ H_ 0.180152 0.802275 0.276176 0.1146
H_ H_ 0.414907 0.56076 0.312465 0.1146
H_ H_ 0.388951 0.810541 0.308465 0.1146
H_ H_ 0.151356 0.561965 0.266278 0.1146
H_ H_ 0.169015 0.802738 0.331165 0.1146
H_ H_ 0.41017 0.56983 0.262369 0.1146
H_ H_ 0.43904 0.820205 0.301529 0.1146
H_ H_ 0.122812 0.55533 0.307903 0.1146
H_ H_ 0.213196 0.825251 0.325056 0.1146
H_ H_ 0.369102 0.559434 0.295185 0.1146
H_ H_ 0.403623 0.819786 0.261331 0.1146
H_ H_ 0.143964 0.721073 0.140384 0.42917
H_ H_ 0.141575 0.970346 0.150609 0.42917
H_ H_ 0.385105 0.719316 0.129796 0.42917
H_ H_ 0.385921 0.963757 0.137575 0.42917
C_ C_ 0.240144 0.65632 0.222473 -0.12085
C_ C_ 0.237085 0.90427 0.220892 -0.12085
C_ C_ 0.484581 0.652303 0.224897 -0.12085
C_ C_ 0.491587 0.904437 0.221202 -0.12085
C_ C_ 0.0153921 0.699274 0.295571 0.6956
C_ C_ 0.0142619 0.948072 0.299254 0.6956
C_ C_ 0.259552 0.697102 0.298831 0.6956
C_ C_ 0.261632 0.945876 0.29759 0.6956
C_ C_ 0.242498 0.686369 0.252914 -0.16651
C_ C_ 0.240607 0.934532 0.254816 -0.16651
C_ C_ 0.488096 0.682936 0.257583 -0.16651
C_ C_ 0.494013 0.934915 0.253477 -0.16651
C_ C_ 0.202594 0.69356 0.201634 -0.12085
C_ C_ 0.205855 0.944656 0.201012 -0.12085
C_ C_ 0.458512 0.696332 0.204418 -0.12085
C_ C_ 0.452969 0.942424 0.201962 -0.12085
C_ C_ 0.216119 0.644663 0.181554 0.16698
C_ C_ 0.209441 0.891289 0.184348 0.16698
C_ C_ 0.470346 0.64587 0.182527 0.16698
C_ C_ 0.468725 0.893719 0.181108 0.16698
C_ C_ 0.182113 0.620148 0.120139 0.36401
C_ C_ 0.185361 0.87241 0.117392 0.36401
C_ C_ 0.43543 0.62193 0.120413 0.36401
C_ C_ 0.430366 0.86632 0.12284 0.36401
C_ C_ 0.200039 0.664538 0.172171 0.16698
C_ C_ 0.194328 0.912126 0.175598 0.16698
C_ C_ 0.455065 0.666232 0.173003 0.16698
C_ C_ 0.451342 0.912665 0.171039 0.16698
C_ C_ 0.224198 0.705579 0.241812 -0.12085
C_ C_ 0.229363 0.956946 0.240867 -0.12085
C_ C_ 0.472189 0.703384 0.245995 -0.12085
C_ C_ 0.470582 0.951628 0.242952 -0.12085
C_ C_ 0.15839 0.593267 0.0793035 0.15351
C_ C_ 0.184221 0.858684 0.0689593 0.15351
C_ C_ 0.40804 0.59147 0.0817517 0.15351
C_ C_ 0.407732 0.837555 0.0811398 0.15351
C_ C_ 0.118777 0.565637 0.0837056 -0.35079
C_ C_ 0.160517 0.819405 0.0507176 -0.35079
C_ C_ 0.37066 0.567783 0.0927781 -0.35079
C_ C_ 0.368684 0.808636 0.0879537 -0.35079
C_ C_ 0.0797771 0.594752 0.0274907 -0.12085
C_ C_ 0.0794102 0.845344 0.0284377 -0.12085
C_ C_ 0.329534 0.597593 0.0265648 -0.12085
C_ C_ 0.326667 0.844586 0.0251084 -0.12085
C_ C_ 0.064431 0.548666 0.448476 0.6956
C_ C_ 0.0598172 0.80512 0.445366 0.6956
C_ C_ 0.313327 0.553224 0.447627 0.6956
C_ C_ 0.313612 0.805698 0.447731 0.6956
C_ C_ 0.0539071 0.561343 0.492236 -0.16651
C_ C_ 0.0500572 0.817282 0.490524 -0.16651
C_ C_ 0.302695 0.564454 0.49205 -0.16651
C_ C_ 0.300309 0.817936 0.491177 -0.16651
C_ C_ 0.259277 0.552385 0.0469409 -0.12085
C_ C_ 0.254916 0.802849 0.0458103 -0.12085
C_ C_ 0.506416 0.553665 0.0498281 -0.12085
C_ C_ 0.507806 0.805789 0.0411172 -0.12085
C_ C_ 0.0652016 0.606999 0.0653654 0.16698
C_ C_ 0.0645568 0.857535 0.0658257 0.16698
C_ C_ 0.31446 0.60714 0.0668246 0.16698
C_ C_ 0.316503 0.855629 0.065623 0.16698
C_ C_ 0.063134 0.624597 0.132166 0.36401
C_ C_ 0.0605101 0.874179 0.131606 0.36401
C_ C_ 0.308573 0.624425 0.132173 0.36401
C_ C_ 0.314161 0.873256 0.133058 0.36401
C_ C_ 0.0309228 0.5858 0.0733231 0.16698
C_ C_ 0.0265416 0.837693 0.0721327 0.16698
C_ C_ 0.278478 0.584365 0.0735282 0.16698
C_ C_ 0.27973 0.835187 0.0741733 0.16698
C_ C_ 0.0179323 0.53964 0.503661 -0.12085
C_ C_ 0.0152861 0.795096 0.501808 -0.12085
C_ C_ 0.266192 0.545798 0.501387 -0.12085
C_ C_ 0.265917 0.795344 0.503063 -0.12085
C_ C_ 0.077874 0.63897 0.180736 0.15351
C_ C_ 0.0733887 0.885792 0.178018 0.15351
C_ C_ 0.319668 0.641242 0.179562 0.15351
C_ C_ 0.327822 0.887901 0.181094 0.15351
C_ C_ 0.0892839 0.677511 0.202638 -0.35079
C_ C_ 0.100696 0.92363 0.200534 -0.35079
C_ C_ 0.326519 0.67816 0.19226 -0.35079
C_ C_ 0.335738 0.925785 0.197501 -0.35079
C_ C_ 0.00659768 0.591412 0.278286 -0.12085
C_ C_ 0.0134428 0.84505 0.276711 -0.12085
C_ C_ 0.256551 0.594123 0.281991 -0.12085
C_ C_ 0.267819 0.846823 0.272574 -0.12085
C_ C_ 0.231877 0.550253 0.205147 0.6956
C_ C_ 0.240665 0.802944 0.197402 0.6956
C_ C_ 0.481824 0.551064 0.20377 0.6956
C_ C_ 0.485537 0.803628 0.203443 0.6956
C_ C_ 0.00169674 0.559872 0.247211 -0.16651
C_ C_ 0.0084709 0.814337 0.245756 -0.16651
C_ C_ 0.251959 0.562158 0.249671 -0.16651
C_ C_ 0.262137 0.814967 0.241506 -0.16651
C_ C_ 0.0408149 0.552128 0.299784 -0.12085
C_ C_ 0.0456226 0.805081 0.298217 -0.12085
C_ C_ 0.285129 0.55161 0.30314 -0.12085
C_ C_ 0.303186 0.808092 0.293406 -0.12085
C_ C_ 0.024109 0.600707 0.319836 0.16698
C_ C_ 0.0288804 0.852948 0.319623 0.16698
C_ C_ 0.273478 0.601545 0.323995 0.16698
C_ C_ 0.287377 0.857032 0.315759 0.16698
C_ C_ 0.0691808 0.629931 0.374891 0.36401
C_ C_ 0.0680572 0.882263 0.377756 0.36401
C_ C_ 0.313394 0.629277 0.380949 0.36401
C_ C_ 0.316908 0.880166 0.381393 0.36401
C_ C_ 0.0399567 0.581008 0.329946 0.16698
C_ C_ 0.0430634 0.832177 0.330606 0.16698
C_ C_ 0.287634 0.580496 0.333061 0.16698
C_ C_ 0.304006 0.837353 0.324597 0.16698
C_ C_ 0.020529 0.541073 0.257921 -0.12085
C_ C_ 0.026971 0.795162 0.256609 -0.12085
C_ C_ 0.267349 0.541143 0.262062 -0.12085
C_ C_ 0.280966 0.796425 0.253235 -0.12085
C_ C_ 0.0971062 0.659639 0.41043 0.15351
C_ C_ 0.0939525 0.911979 0.415926 0.15351
C_ C_ 0.340134 0.657754 0.417872 0.15351
C_ C_ 0.341961 0.908795 0.420868 0.15351
C_ C_ 0.13013 0.685192 0.394526 -0.35079
C_ C_ 0.133735 0.935152 0.403702 -0.35079
C_ C_ 0.378586 0.683074 0.409548 -0.35079
C_ C_ 0.377441 0.938327 0.41255 -0.35079
C_ C_ 0.171219 0.652193 0.471513 -0.12085
C_ C_ 0.166393 0.900414 0.474054 -0.12085
C_ C_ 0.422819 0.647704 0.475323 -0.12085
C_ C_ 0.424748 0.902736 0.477046 -0.12085
C_ C_ 0.187866 0.693878 0.052096 0.6956
C_ C_ 0.185356 0.941514 0.0485391 0.6956
C_ C_ 0.435928 0.693579 0.0529396 0.6956
C_ C_ 0.43253 0.941623 0.0508124 0.6956
C_ C_ 0.200406 0.681506 0.00886208 -0.16651
C_ C_ 0.194675 0.930393 0.00293994 -0.16651
C_ C_ 0.445069 0.682942 0.00802691 -0.16651
C_ C_ 0.44361 0.931363 0.00580887 -0.16651
C_ C_ 0.996212 0.692882 0.458097 -0.12085
C_ C_ 0.990192 0.947963 0.451653 -0.12085
C_ C_ 0.2411 0.693726 0.44843 -0.12085
C_ C_ 0.244043 0.93967 0.459838 -0.12085
C_ C_ 0.181139 0.640013 0.431094 0.16698
C_ C_ 0.17999 0.890063 0.435202 0.16698
C_ C_ 0.435207 0.638553 0.434281 0.16698
C_ C_ 0.43808 0.89275 0.436882 0.16698
C_ C_ 0.181695 0.624756 0.364733 0.36401
C_ C_ 0.186078 0.872928 0.36868 0.36401
C_ C_ 0.435589 0.6251 0.367153 0.36401
C_ C_ 0.439381 0.877534 0.369955 0.36401
C_ C_ 0.217071 0.660546 0.421247 0.16698
C_ C_ 0.217981 0.910082 0.428212 0.16698
C_ C_ 0.471811 0.658263 0.426414 0.16698
C_ C_ 0.473148 0.915004 0.428433 0.16698
C_ C_ 0.234429 0.702776 0.995469 -0.12085
C_ C_ 0.229 0.951195 0.990801 -0.12085
C_ C_ 0.479576 0.705621 0.996604 -0.12085
C_ C_ 0.481524 0.951734 0.997344 -0.12085
C_ C_ 0.166154 0.610392 0.316586 0.15351
C_ C_ 0.175594 0.851349 0.321447 0.15351
C_ C_ 0.421186 0.613106 0.320851 0.15351
C_ C_ 0.426781 0.863768 0.32033 0.15351
C_ C_ 0.1518 0.571161 0.299539 -0.35079
C_ C_ 0.182537 0.818229 0.310313 -0.35079
C_ C_ 0.402649 0.574537 0.296495 -0.35079
C_ C_ 0.415127 0.826502 0.295816 -0.35079
N_ N_ 0.204115 0.614043 0.149844 -0.51457
N_ N_ 0.203365 0.864931 0.147491 -0.51457
N_ N_ 0.45624 0.615884 0.148639 -0.51457
N_ N_ 0.455583 0.86274 0.14925 -0.51457
N_ N_ 0.175843 0.648578 0.134334 -0.51457
N_ N_ 0.17847 0.900715 0.133746 -0.51457
N_ N_ 0.431625 0.651993 0.134527 -0.51457
N_ N_ 0.428313 0.896981 0.135111 -0.51457
N_ N_ 0.087149 0.633041 0.101862 -0.51457
N_ N_ 0.0868174 0.882664 0.103208 -0.51457
N_ N_ 0.335819 0.633266 0.103667 -0.51457
N_ N_ 0.340438 0.879282 0.1025 -0.51457
N_ N_ 0.0266775 0.595687 0.115424 -0.51457
N_ N_ 0.0249943 0.846086 0.114756 -0.51457
N_ N_ 0.274016 0.594451 0.114723 -0.51457
N_ N_ 0.276489 0.846253 0.115296 -0.51457
N_ N_ 0.0430114 0.634179 0.348047 -0.51457
N_ N_ 0.0447221 0.8856 0.349722 -0.51457
N_ N_ 0.28728 0.63208 0.355249 -0.51457
N_ N_ 0.296175 0.885861 0.352128 -0.51457
N_ N_ 0.066769 0.596914 0.365244 -0.51457
N_ N_ 0.0699456 0.850583 0.36641 -0.51457
N_ N_ 0.317406 0.599151 0.36733 -0.51457
N_ N_ 0.323325 0.850545 0.365166 -0.51457
N_ N_ 0.158434 0.614898 0.394803 -0.51457
N_ N_ 0.158117 0.865159 0.397185 -0.51457
N_ N_ 0.410332 0.616422 0.396476 -0.51457
N_ N_ 0.414873 0.867548 0.400178 -0.51457
N_ N_ 0.216365 0.65402 0.379182 -0.51457
N_ N_ 0.221287 0.900513 0.385813 -0.51457
N_ N_ 0.472755 0.649875 0.38496 -0.51457
N_ N_ 0.474413 0.905991 0.387365 -0.51457
O_ O_ 0.0241116 0.730965 0.322277 -0.61362
O_ O_ 0.0250485 0.98002 0.324833 -0.61362
O_ O_ 0.27867 0.729925 0.323108 -0.61362
O_ O_ 0.276886 0.97868 0.324138 -0.61362
O_ O_ 0.0574195 0.717256 0.381814 -0.98607
O_ O_ 0.0555725 0.968516 0.385783 -0.98607
O_ O_ 0.305932 0.717096 0.382078 -0.98607
O_ O_ 0.308209 0.967996 0.383195 -0.98607
O_ O_ 0.0163446 0.675923 0.309194 -0.61362
O_ O_ 0.0191604 0.925085 0.311264 -0.61362
O_ O_ 0.263106 0.673462 0.310958 -0.61362
O_ O_ 0.266392 0.923139 0.3092 -0.61362
O_ O_ 0.17928 0.579643 0.0582984 -0.55956
O_ O_ 0.218423 0.865048 0.056283 -0.55956
O_ O_ 0.426643 0.574317 0.0619264 -0.55956
O_ O_ 0.428265 0.824028 0.0615881 -0.55956
O_ O_ 0.0403166 0.519407 0.42137 -0.61362
O_ O_ 0.0352662 0.774559 0.416762 -0.61362
O_ O_ 0.293043 0.521386 0.420074 -0.61362
O_ O_ 0.291538 0.77458 0.42266 -0.61362
O_ O_ 0.095242 0.537439 0.375135 -0.98607
O_ O_ 0.0914084 0.786497 0.37294 -0.98607
O_ O_ 0.343997 0.536265 0.366772 -0.98607
O_ O_ 0.34617 0.78902 0.369671 -0.98607
O_ O_ 0.0927764 0.57231 0.43636 -0.61362
O_ O_ 0.0944417 0.824866 0.437296 -0.61362
O_ O_ 0.335625 0.578204 0.433804 -0.61362
O_ O_ 0.345524 0.82671 0.435708 -0.61362
O_ O_ 0.105682 0.632188 0.189484 -0.55956
O_ O_ 0.0935019 0.870597 0.1841 -0.55956
O_ O_ 0.349506 0.638538 0.192817 -0.55956
O_ O_ 0.358686 0.885722 0.191005 -0.55956
O_ O_ 0.220266 0.518422 0.181602 -0.61362
O_ O_ 0.227438 0.770402 0.174127 -0.61362
O_ O_ 0.472373 0.519152 0.176622 -0.61362
O_ O_ 0.474424 0.770737 0.178167 -0.61362
O_ O_ 0.188362 0.530045 0.120472 -0.98607
O_ O_ 0.190194 0.780935 0.118301 -0.98607
O_ O_ 0.444834 0.534204 0.116788 -0.98607
O_ O_ 0.442338 0.781289 0.117698 -0.98607
O_ O_ 0.222508 0.571574 0.19195 -0.61362
O_ O_ 0.236653 0.82517 0.18308 -0.61362
O_ O_ 0.473853 0.573785 0.192999 -0.61362
O_ O_ 0.486267 0.826502 0.186701 -0.61362
O_ O_ 0.0795282 0.676449 0.432626 -0.55956
O_ O_ 0.0744476 0.928156 0.437566 -0.55956
O_ O_ 0.321434 0.675359 0.43737 -0.55956
O_ O_ 0.320274 0.921314 0.441176 -0.55956
O_ O_ 0.211228 0.723687 0.0793405 -0.61362
O_ O_ 0.208238 0.973114 0.0753282 -0.61362
O_ O_ 0.45796 0.723144 0.0795777 -0.61362
O_ O_ 0.45817 0.970238 0.0793825 -0.61362
O_ O_ 0.160656 0.714712 0.129104 -0.98607
O_ O_ 0.157097 0.965051 0.136432 -0.98607
O_ O_ 0.40434 0.714189 0.12452 -0.98607
O_ O_ 0.407974 0.962161 0.131041 -0.98607
O_ O_ 0.151773 0.676133 0.0600594 -0.61362
O_ O_ 0.151973 0.924061 0.0613816 -0.61362
O_ O_ 0.405909 0.670875 0.0643507 -0.61362
O_ O_ 0.4053 0.918789 0.0632248 -0.61362
O_ O_ 0.137942 0.616871 0.307045 -0.55956
O_ O_ 0.140733 0.843108 0.305388 -0.55956
O_ O_ 0.394401 0.62298 0.315551 -0.55956
O_ O_ 0.396862 0.869212 0.312584 -0.55956
Zn Zn 0.0248601 0.673286 0.863307 0.91541
Zn Zn 0.0261789 0.924504 0.863108 0.91541
Zn Zn 0.272916 0.672964 0.862756 0.91541
Zn Zn 0.269627 0.918875 0.86012 0.91541
Zn Zn 0.102673 0.579349 0.884575 0.91541
Zn Zn 0.0999341 0.830175 0.884683 0.91541
Zn Zn 0.351109 0.5795 0.884613 0.91541
Zn Zn 0.351712 0.828561 0.886177 0.91541
Zn Zn 0.22895 0.577085 0.635389 0.91541
Zn Zn 0.222552 0.825192 0.633295 0.91541
Zn Zn 0.47741 0.573998 0.636074 0.91541
Zn Zn 0.473619 0.826405 0.633013 0.91541
Zn Zn 0.148204 0.666799 0.608925 0.91541
Zn Zn 0.142243 0.918534 0.612191 0.91541
Zn Zn 0.396808 0.667896 0.613356 0.91541
Zn Zn 0.394231 0.918989 0.614461 0.91541
Zn Zn 0.0513873 0.499366 0.872458 1.11764
Zn Zn 0.0544947 0.753455 0.873505 1.11764
Zn Zn 0.301102 0.502114 0.877674 1.11764
Zn Zn 0.3037 0.750768 0.873287 1.11764
Zn Zn 0.191759 0.996208 0.625556 1.11764
Zn Zn 0.194333 0.747093 0.619286 1.11764
Zn Zn 0.445414 0.999836 0.626298 1.11764
Zn Zn 0.446631 0.748069 0.625959 1.11764
H_ H_ 0.249423 0.636423 0.731289 0.1146
H_ H_ 0.250228 0.888127 0.723682 0.1146
H_ H_ 0.496251 0.633912 0.72792 0.1146
H_ H_ 0.509247 0.895126 0.728672 0.1146
H_ H_ 0.190817 0.706825 0.687094 0.1146
H_ H_ 0.199822 0.962952 0.683627 0.1146
H_ H_ 0.445091 0.706294 0.688148 0.1146
H_ H_ 0.444704 0.964979 0.697676 0.1146
H_ H_ 0.223121 0.724667 0.763167 0.1146
H_ H_ 0.230838 0.979704 0.75843 0.1146
H_ H_ 0.487153 0.728887 0.760849 0.1146
H_ H_ 0.473267 0.97894 0.769684 0.1146
H_ H_ 0.195801 0.576274 0.526066 0.42917
H_ H_ 0.173169 0.807663 0.538405 0.42917
H_ H_ 0.434009 0.562757 0.535662 0.42917
H_ H_ 0.43739 0.822754 0.536373 0.42917
H_ H_ 0.157789 0.606682 0.552006 0.1146
H_ H_ 0.137478 0.847076 0.562132 0.1146
H_ H_ 0.402509 0.601635 0.556777 0.1146
H_ H_ 0.399488 0.85562 0.560582 0.1146
H_ H_ 0.135816 0.546518 0.592581 0.1146
H_ H_ 0.129005 0.806546 0.62468 0.1146
H_ H_ 0.346042 0.549415 0.562314 0.1146
H_ H_ 0.373312 0.796315 0.599822 0.1146
H_ H_ 0.108063 0.570034 0.589264 0.1146
H_ H_ 0.0907019 0.812651 0.600983 0.1146
H_ H_ 0.372962 0.54993 0.608425 0.1146
H_ H_ 0.350086 0.825702 0.608965 0.1146
H_ H_ 0.113844 0.539367 0.544205 0.1146
H_ H_ 0.108202 0.779722 0.575317 0.1146
H_ H_ 0.351792 0.580683 0.610172 0.1146
H_ H_ 0.350141 0.798416 0.556751 0.1146
H_ H_ 0.0820153 0.723913 0.889278 0.42917
H_ H_ 0.0833609 0.974101 0.890859 0.42917
H_ H_ 0.328378 0.720358 0.899969 0.42917
H_ H_ 0.320609 0.965434 0.896389 0.42917
H_ H_ 0.10734 0.607561 0.514651 0.1146
H_ H_ 0.106615 0.862296 0.522352 0.1146
H_ H_ 0.35798 0.608054 0.518101 0.1146
H_ H_ 0.357437 0.864873 0.520823 0.1146
H_ H_ 0.228438 0.538292 0.552124 0.1146
H_ H_ 0.22503 0.790837 0.550629 0.1146
H_ H_ 0.481684 0.535766 0.556611 0.1146
H_ H_ 0.480226 0.788765 0.552542 0.1146
H_ H_ 0.24898 0.519301 0.981085 0.1146
H_ H_ 0.241069 0.774863 0.976602 0.1146
H_ H_ 0.501661 0.516084 0.987533 0.1146
H_ H_ 0.503651 0.773062 0.978203 0.1146
H_ H_ 0.126826 0.650613 0.70294 0.42917
H_ H_ 0.130923 0.88781 0.695201 0.42917
H_ H_ 0.382811 0.644782 0.704856 0.42917
H_ H_ 0.373471 0.879766 0.682067 0.42917
H_ H_ 0.0550666 0.630388 0.694103 0.1146
H_ H_ 0.0506219 0.869391 0.69184 0.1146
H_ H_ 0.310715 0.629621 0.695661 0.1146
H_ H_ 0.29676 0.87475 0.691151 0.1146
H_ H_ 0.0457418 0.681314 0.680671 0.1146
H_ H_ 0.0899704 0.931936 0.72591 0.1146
H_ H_ 0.326103 0.686481 0.724484 0.1146
H_ H_ 0.335988 0.938182 0.730961 0.1146
H_ H_ 0.0729674 0.690631 0.728842 0.1146
H_ H_ 0.119652 0.933276 0.686014 0.1146
H_ H_ 0.359199 0.700765 0.690477 0.1146
H_ H_ 0.367131 0.939314 0.689794 0.1146
H_ H_ 0.100356 0.703565 0.689528 0.1146
H_ H_ 0.0725336 0.931538 0.676076 0.1146
H_ H_ 0.304777 0.678171 0.671437 0.1146
H_ H_ 0.315725 0.928752 0.677685 0.1146
H_ H_ 0.107315 0.527385 0.854321 0.42917
H_ H_ 0.11783 0.789294 0.861221 0.42917
H_ H_ 0.362692 0.533012 0.866597 0.42917
H_ H_ 0.355645 0.778804 0.851511 0.42917
H_ H_ 0.998178 0.611069 0.772687 0.1146
H_ H_ -0.003010999999999986 0.858531 0.76485 0.1146
H_ H_ 0.247863 0.610445 0.772747 0.1146
H_ H_ 0.253841 0.86124 0.767214 0.1146
H_ H_ 0.0451043 0.532844 0.809026 0.1146
H_ H_ 0.0509451 0.787572 0.811738 0.1146
H_ H_ 0.300685 0.534864 0.810306 0.1146
H_ H_ 0.296783 0.783042 0.806582 0.1146
H_ H_ 0.0229661 0.519917 0.736017 0.1146
H_ H_ 0.0210773 0.769772 0.73353 0.1146
H_ H_ 0.276781 0.522561 0.736686 0.1146
H_ H_ 0.268969 0.768491 0.730847 0.1146
H_ H_ 0.0883482 0.695447 0.956867 0.42917
H_ H_ 0.0575243 0.933982 0.957784 0.42917
H_ H_ 0.306255 0.678596 0.962879 0.42917
H_ H_ 0.307826 0.929621 0.9548 0.42917
H_ H_ 0.103804 0.646192 0.933064 0.1146
H_ H_ 0.0917872 0.89748 0.941516 0.1146
H_ H_ 0.342809 0.645459 0.948277 0.1146
H_ H_ 0.344982 0.895395 0.937319 0.1146
H_ H_ 0.140751 0.657247 0.866913 0.1146
H_ H_ 0.151635 0.924448 0.900858 0.1146
H_ H_ 0.40372 0.69944 0.951845 0.1146
H_ H_ 0.370971 0.951721 0.895895 0.1146
H_ H_ 0.161922 0.691843 0.914836 0.1146
H_ H_ 0.142478 0.951482 0.947412 0.1146
H_ H_ 0.378093 0.708371 0.913954 0.1146
H_ H_ 0.395047 0.92555 0.896259 0.1146
H_ H_ 0.130152 0.693673 0.872391 0.1146
H_ H_ 0.12654 0.951604 0.89274 0.1146
H_ H_ 0.394006 0.67623 0.896503 0.1146
H_ H_ 0.393603 0.955103 0.94526 0.1146
H_ H_ 0.173852 0.528086 0.61429 0.42917
H_ H_ 0.166143 0.772756 0.596345 0.42917
H_ H_ 0.42012 0.525992 0.60426 0.42917
H_ H_ 0.423046 0.77265 0.594986 0.42917
H_ H_ 0.144001 0.634455 0.98282 0.1146
H_ H_ 0.138632 0.885291 0.976787 0.1146
H_ H_ 0.40018 0.628794 0.984714 0.1146
H_ H_ 0.389678 0.885964 0.979567 0.1146
H_ H_ 0.0190541 0.715398 0.941914 0.1146
H_ H_ 0.0184965 0.965613 0.941286 0.1146
H_ H_ 0.264401 0.712804 0.941814 0.1146
H_ H_ 0.265382 0.958171 0.941163 0.1146
H_ H_ 1.00963527 0.718859 0.52529 0.1146
H_ H_ 1.00127061 0.98172 0.517082 0.1146
H_ H_ 0.255915 0.726734 0.511898 0.1146
H_ H_ 0.251247 0.973428 0.524694 0.1146
H_ H_ 0.125457 0.603611 0.80254 0.42917
H_ H_ 0.124666 0.86954 0.795204 0.42917
H_ H_ 0.373077 0.623196 0.813461 0.42917
H_ H_ 0.387876 0.869096 0.785335 0.42917
H_ H_ 0.197191 0.619041 0.804036 0.1146
H_ H_ 0.193016 0.870216 0.800121 0.1146
H_ H_ 0.442139 0.622536 0.807376 0.1146
H_ H_ 0.449691 0.870702 0.805773 0.1146
H_ H_ 0.183518 0.555982 0.781102 0.1146
H_ H_ 0.156471 0.810327 0.760221 0.1146
H_ H_ 0.423172 0.563853 0.827194 0.1146
H_ H_ 0.434555 0.814122 0.817867 0.1146
H_ H_ 0.163414 0.551873 0.829109 0.1146
H_ H_ 0.125234 0.805161 0.804495 0.1146
H_ H_ 0.41248 0.561335 0.772902 0.1146
H_ H_ 0.409168 0.811118 0.767257 0.1146
H_ H_ 0.211295 0.578149 0.831631 0.1146
H_ H_ 0.177317 0.81109 0.810392 0.1146
H_ H_ 0.374612 0.54843 0.806655 0.1146
H_ H_ 0.383793 0.80701 0.807292 0.1146
H_ H_ 0.138856 0.714943 0.636725 0.42917
H_ H_ 0.13141 0.966251 0.637685 0.42917
H_ H_ 0.383818 0.711644 0.626259 0.42917
H_ H_ 0.386649 0.970867 0.638487 0.42917
C_ C_ 0.237065 0.652091 0.721732 -0.12085
C_ C_ 0.238374 0.903033 0.717711 -0.12085
C_ C_ 0.48825 0.651261 0.719494 -0.12085
C_ C_ 0.493124 0.908997 0.7218 -0.12085
C_ C_ 0.0133728 0.694106 0.798839 0.6956
C_ C_ 0.012501 0.944261 0.796794 0.6956
C_ C_ 0.258728 0.69263 0.799407 0.6956
C_ C_ 0.260968 0.945637 0.793266 0.6956
C_ C_ 0.239865 0.682971 0.753791 -0.16651
C_ C_ 0.245836 0.935629 0.747241 -0.16651
C_ C_ 0.491763 0.682072 0.751706 -0.16651
C_ C_ 0.494607 0.93954 0.753868 -0.16651
C_ C_ 0.206973 0.692636 0.696894 -0.12085
C_ C_ 0.213417 0.948323 0.693078 -0.12085
C_ C_ 0.461484 0.694041 0.697168 -0.12085
C_ C_ 0.457755 0.948996 0.702789 -0.12085
C_ C_ 0.222856 0.645199 0.677181 0.16698
C_ C_ 0.219951 0.8948 0.676065 0.16698
C_ C_ 0.477848 0.645434 0.675521 0.16698
C_ C_ 0.471653 0.898758 0.68004 0.16698
C_ C_ 0.184956 0.618434 0.616841 0.36401
C_ C_ 0.179896 0.866679 0.618796 0.36401
C_ C_ 0.433668 0.616648 0.619162 0.36401
C_ C_ 0.431881 0.870709 0.620846 0.36401
C_ C_ 0.210097 0.666765 0.666199 0.16698
C_ C_ 0.208073 0.91664 0.66466 0.16698
C_ C_ 0.462487 0.666135 0.665226 0.16698
C_ C_ 0.454513 0.918429 0.671749 0.16698
C_ C_ 0.225171 0.703052 0.7401 -0.12085
C_ C_ 0.231738 0.95767 0.735742 -0.12085
C_ C_ 0.480847 0.704442 0.739185 -0.12085
C_ C_ 0.474735 0.957902 0.744877 -0.12085
C_ C_ 0.165879 0.591904 0.571731 0.15351
C_ C_ 0.151393 0.835556 0.582194 0.15351
C_ C_ 0.40789 0.588585 0.578283 0.15351
C_ C_ 0.407369 0.842184 0.579253 0.15351
C_ C_ 0.129618 0.560062 0.57403 -0.35079
C_ C_ 0.116988 0.807657 0.596215 -0.35079
C_ C_ 0.368348 0.566567 0.59187 -0.35079
C_ C_ 0.368094 0.814281 0.586933 -0.35079
C_ C_ 0.0792817 0.593088 0.523565 -0.12085
C_ C_ 0.075166 0.848062 0.52336 -0.12085
C_ C_ 0.328313 0.59553 0.523748 -0.12085
C_ C_ 0.324972 0.850006 0.524428 -0.12085
C_ C_ 0.0664268 0.553081 0.949542 0.6956
C_ C_ 0.0627548 0.80705 0.947685 0.6956
C_ C_ 0.313334 0.552913 0.949563 0.6956
C_ C_ 0.310744 0.803626 0.946907 0.6956
C_ C_ 0.0545623 0.564722 0.993952 -0.16651
C_ C_ 0.0510741 0.816389 0.992373 -0.16651
C_ C_ 0.304416 0.565084 0.994378 -0.16651
C_ C_ 0.297651 0.816421 0.991164 -0.16651
C_ C_ 0.254933 0.556091 0.542398 -0.12085
C_ C_ 0.250076 0.807483 0.54038 -0.12085
C_ C_ 0.50735 0.554676 0.5476 -0.12085
C_ C_ 0.503074 0.806449 0.54296 -0.12085
C_ C_ 0.0673859 0.603613 0.563772 0.16698
C_ C_ 0.0614016 0.857868 0.562438 0.16698
C_ C_ 0.314918 0.608042 0.563868 0.16698
C_ C_ 0.311949 0.858465 0.562766 0.16698
C_ C_ 0.0642599 0.62565 0.629358 0.36401
C_ C_ 0.0611555 0.869028 0.629137 0.36401
C_ C_ 0.31516 0.624698 0.631293 0.36401
C_ C_ 0.311483 0.86894 0.629498 0.36401
C_ C_ 0.0331294 0.582104 0.57375 0.16698
C_ C_ 0.0247621 0.837977 0.569427 0.16698
C_ C_ 0.280216 0.586436 0.573253 0.16698
C_ C_ 0.274937 0.838276 0.570839 0.16698
C_ C_ 0.0170507 0.545651 1.00343625 -0.12085
C_ C_ 0.0129785 0.796222 -0.000601891 -0.12085
C_ C_ 0.269357 0.542786 0.00592105 -0.12085
C_ C_ 0.260585 0.795598 0.00174426 -0.12085
C_ C_ 0.0747843 0.648103 0.677152 0.15351
C_ C_ 0.0766146 0.884698 0.67793 0.15351
C_ C_ 0.331093 0.644361 0.67754 0.15351
C_ C_ 0.323924 0.886984 0.677473 0.15351
C_ C_ 0.0719046 0.681563 0.693558 -0.35079
C_ C_ 0.0910199 0.922832 0.692241 -0.35079
C_ C_ 0.330964 0.680048 0.691286 -0.35079
C_ C_ 0.337202 0.925561 0.694679 -0.35079
C_ C_ 0.0102193 0.594073 0.779527 -0.12085
C_ C_ 0.00721465 0.842521 0.775756 -0.12085
C_ C_ 0.265231 0.597741 0.777259 -0.12085
C_ C_ 0.260018 0.842243 0.775805 -0.12085
C_ C_ 0.241818 0.552957 0.702088 0.6956
C_ C_ 0.231001 0.798039 0.698029 0.6956
C_ C_ 0.4864 0.550146 0.703986 0.6956
C_ C_ 0.484728 0.801408 0.699831 0.6956
C_ C_ 0.00659958 0.563018 0.746672 -0.16651
C_ C_ 0.00777266 0.812735 0.745583 -0.16651
C_ C_ 0.26094 0.56549 0.748063 -0.16651
C_ C_ 0.254261 0.811255 0.74311 -0.16651
C_ C_ 0.0376632 0.550339 0.800918 -0.12085
C_ C_ 0.0394025 0.802146 0.799158 -0.12085
C_ C_ 0.295789 0.555043 0.801609 -0.12085
C_ C_ 0.288609 0.800401 0.797235 -0.12085
C_ C_ 0.0224436 0.600615 0.823101 0.16698
C_ C_ 0.0280344 0.853493 0.817143 0.16698
C_ C_ 0.284985 0.60745 0.820328 0.16698
C_ C_ 0.274572 0.850566 0.817506 0.16698
C_ C_ 0.0668689 0.62971 0.877521 0.36401
C_ C_ 0.0668945 0.882124 0.876989 0.36401
C_ C_ 0.320001 0.632988 0.881922 0.36401
C_ C_ 0.317002 0.879945 0.874954 0.36401
C_ C_ 0.0398564 0.580787 0.830304 0.16698
C_ C_ 0.0437609 0.83253 0.82677 0.16698
C_ C_ 0.298782 0.585908 0.829737 0.16698
C_ C_ 0.292328 0.831062 0.827276 0.16698
C_ C_ 0.0227076 0.542028 0.758173 -0.12085
C_ C_ 0.022695 0.792197 0.757232 -0.12085
C_ C_ 0.277364 0.545822 0.759287 -0.12085
C_ C_ 0.269265 0.790623 0.755025 -0.12085
C_ C_ 0.0993964 0.659742 0.910262 0.15351
C_ C_ 0.0886326 0.910297 0.919729 0.15351
C_ C_ 0.340795 0.658988 0.926294 0.15351
C_ C_ 0.339618 0.909811 0.917108 0.15351
C_ C_ 0.1347 0.677273 0.889023 -0.35079
C_ C_ 0.129587 0.935905 0.914531 -0.35079
C_ C_ 0.381306 0.688009 0.922352 -0.35079
C_ C_ 0.377361 0.937031 0.913707 -0.35079
C_ C_ 0.173897 0.649734 0.97518 -0.12085
C_ C_ 0.168438 0.898012 0.970589 -0.12085
C_ C_ 0.421734 0.64908 0.977587 -0.12085
C_ C_ 0.417661 0.899877 0.973093 -0.12085
C_ C_ 0.187681 0.692083 0.547663 0.6956
C_ C_ 0.182054 0.942566 0.5527 0.6956
C_ C_ 0.43485 0.690187 0.551434 0.6956
C_ C_ 0.438966 0.944368 0.554168 0.6956
C_ C_ 0.19861 0.682681 0.503452 -0.16651
C_ C_ 0.191405 0.932059 0.506298 -0.16651
C_ C_ 0.449488 0.67728 0.509325 -0.16651
C_ C_ 0.450622 0.933194 0.50957 -0.16651
C_ C_ 0.994047 0.698201 0.954654 -0.12085
C_ C_ 0.992286 0.949301 0.953683 -0.12085
C_ C_ 0.244845 0.692049 0.953715 -0.12085
C_ C_ 0.239512 0.940508 0.950602 -0.12085
C_ C_ 0.187027 0.638001 0.935281 0.16698
C_ C_ 0.181191 0.885544 0.930798 0.16698
C_ C_ 0.432164 0.640303 0.936546 0.16698
C_ C_ 0.4308 0.891078 0.934026 0.16698
C_ C_ 0.187318 0.623692 0.867408 0.36401
C_ C_ 0.184292 0.872143 0.864582 0.36401
C_ C_ 0.432367 0.62434 0.870667 0.36401
C_ C_ 0.433835 0.875412 0.867089 0.36401
C_ C_ 0.221578 0.660114 0.925999 0.16698
C_ C_ 0.219449 0.907053 0.922699 0.16698
C_ C_ 0.467787 0.661003 0.927872 0.16698
C_ C_ 0.466998 0.912054 0.925664 0.16698
C_ C_ 0.234948 0.702885 0.491888 -0.12085
C_ C_ 0.230213 0.949869 0.498731 -0.12085
C_ C_ 0.484646 0.701263 0.497988 -0.12085
C_ C_ 0.487116 0.956114 0.500507 -0.12085
C_ C_ 0.177169 0.602765 0.821741 0.15351
C_ C_ 0.167644 0.856523 0.815697 0.15351
C_ C_ 0.417037 0.607666 0.822659 0.15351
C_ C_ 0.423595 0.858029 0.818957 0.15351
C_ C_ 0.184521 0.570059 0.815733 -0.35079
C_ C_ 0.156115 0.81924 0.796402 -0.35079
C_ C_ 0.405475 0.569381 0.805481 -0.35079
C_ C_ 0.414851 0.82129 0.803361 -0.35079
N_ N_ 0.208015 0.613974 0.645397 -0.51457
N_ N_ 0.205135 0.862359 0.644199 -0.51457
N_ N_ 0.459705 0.612562 0.646072 -0.51457
N_ N_ 0.4577 0.868308 0.648195 -0.51457
N_ N_ 0.183546 0.649327 0.629969 -0.51457
N_ N_ 0.178096 0.898174 0.631272 -0.51457
N_ N_ 0.434698 0.649043 0.629657 -0.51457
N_ N_ 0.429835 0.901992 0.63426 -0.51457
N_ N_ 0.0891442 0.634287 0.599083 -0.51457
N_ N_ 0.0851738 0.877961 0.600024 -0.51457
N_ N_ 0.337669 0.63318 0.599562 -0.51457
N_ N_ 0.335345 0.877944 0.600038 -0.51457
N_ N_ 0.0306681 0.593028 0.614625 -0.51457
N_ N_ 0.0245624 0.843709 0.610676 -0.51457
N_ N_ 0.280026 0.595954 0.616107 -0.51457
N_ N_ 0.27492 0.843273 0.613059 -0.51457
N_ N_ 0.0414312 0.633464 0.851838 -0.51457
N_ N_ 0.0422787 0.884639 0.848328 -0.51457
N_ N_ 0.295916 0.637034 0.853459 -0.51457
N_ N_ 0.290958 0.882919 0.847217 -0.51457
N_ N_ 0.0675743 0.597632 0.865919 -0.51457
N_ N_ 0.0672221 0.849936 0.865067 -0.51457
N_ N_ 0.319708 0.601368 0.868913 -0.51457
N_ N_ 0.320009 0.848829 0.862973 -0.51457
N_ N_ 0.162953 0.614366 0.898116 -0.51457
N_ N_ 0.158572 0.865039 0.893471 -0.51457
N_ N_ 0.40811 0.616025 0.900841 -0.51457
N_ N_ 0.408134 0.866853 0.896823 -0.51457
N_ N_ 0.224255 0.650761 0.884058 -0.51457
N_ N_ 0.220358 0.896994 0.881341 -0.51457
N_ N_ 0.469321 0.650829 0.885213 -0.51457
N_ N_ 0.467793 0.904223 0.883015 -0.51457
O_ O_ 0.0185142 0.724997 0.82654 -0.61362
O_ O_ 0.0212187 0.976368 0.823694 -0.61362
O_ O_ 0.265686 0.72196 0.824839 -0.61362
O_ O_ 0.275651 0.977586 0.817879 -0.61362
O_ O_ 0.0594724 0.718862 0.877644 -0.98607
O_ O_ 0.060389 0.968133 0.878319 -0.98607
O_ O_ 0.307863 0.71574 0.883657 -0.98607
O_ O_ 0.301486 0.962702 0.880768 -0.98607
O_ O_ 0.0207736 0.67251 0.812497 -0.61362
O_ O_ 0.0233353 0.922993 0.809305 -0.61362
O_ O_ 0.273179 0.673737 0.809578 -0.61362
O_ O_ 0.257264 0.921347 0.80943 -0.61362
O_ O_ 0.188316 0.579926 0.550469 -0.55956
O_ O_ 0.171888 0.821134 0.562491 -0.55956
O_ O_ 0.424446 0.569514 0.558203 -0.55956
O_ O_ 0.427573 0.827131 0.558189 -0.55956
O_ O_ 0.0453594 0.520841 0.923638 -0.61362
O_ O_ 0.044249 0.776198 0.922412 -0.61362
O_ O_ 0.28889 0.52448 0.923468 -0.61362
O_ O_ 0.290718 0.771454 0.924118 -0.61362
O_ O_ 0.0907701 0.534631 0.867438 -0.98607
O_ O_ 0.0963718 0.789299 0.869106 -0.98607
O_ O_ 0.342198 0.53607 0.873485 -0.98607
O_ O_ 0.340298 0.784999 0.86694 -0.98607
O_ O_ 0.094714 0.575637 0.937413 -0.61362
O_ O_ 0.0937868 0.828848 0.936991 -0.61362
O_ O_ 0.342968 0.575357 0.937144 -0.61362
O_ O_ 0.345678 0.823393 0.938503 -0.61362
O_ O_ 0.110534 0.656457 0.69111 -0.55956
O_ O_ 0.106183 0.878869 0.688276 -0.55956
O_ O_ 0.367074 0.648249 0.689265 -0.55956
O_ O_ 0.351699 0.880581 0.688589 -0.55956
O_ O_ 0.224317 0.519948 0.679175 -0.61362
O_ O_ 0.219335 0.765773 0.674456 -0.61362
O_ O_ 0.468531 0.516878 0.681855 -0.61362
O_ O_ 0.474535 0.769821 0.677276 -0.61362
O_ O_ 0.198943 0.533694 0.621774 -0.98607
O_ O_ 0.188065 0.779906 0.611672 -0.98607
O_ O_ 0.442449 0.529828 0.617833 -0.98607
O_ O_ 0.442444 0.780963 0.614116 -0.98607
O_ O_ 0.247735 0.576938 0.684063 -0.61362
O_ O_ 0.231038 0.822386 0.682345 -0.61362
O_ O_ 0.487415 0.573876 0.686795 -0.61362
O_ O_ 0.487921 0.824487 0.682704 -0.61362
O_ O_ 0.0866405 0.680472 0.93324 -0.55956
O_ O_ 0.0687335 0.927339 0.935742 -0.55956
O_ O_ 0.32182 0.676471 0.944827 -0.55956
O_ O_ 0.319649 0.926296 0.934326 -0.55956
O_ O_ 0.208812 0.723124 0.575524 -0.61362
O_ O_ 0.197001 0.976275 0.573063 -0.61362
O_ O_ 0.451262 0.723172 0.574321 -0.61362
O_ O_ 0.459995 0.975865 0.57931 -0.61362
O_ O_ 0.157402 0.711654 0.624178 -0.98607
O_ O_ 0.150677 0.960759 0.62701 -0.98607
O_ O_ 0.40558 0.710142 0.624059 -0.98607
O_ O_ 0.404056 0.962833 0.628136 -0.98607
O_ O_ 0.15421 0.671064 0.557412 -0.61362
O_ O_ 0.149734 0.922442 0.564675 -0.61362
O_ O_ 0.407137 0.668481 0.564042 -0.61362
O_ O_ 0.405555 0.924823 0.56396 -0.61362
O_ O_ 0.141751 0.594975 0.808845 -0.55956
O_ O_ 0.137975 0.862376 0.809632 -0.55956
O_ O_ 0.385704 0.61125 0.815379 -0.55956
O_ O_ 0.39543 0.861107 0.803597 -0.55956
Zn Zn 0.526287 0.173149 0.367904 0.91541
Zn Zn 0.522743 0.421835 0.365684 0.91541
Zn Zn 0.77753 0.174022 0.364639 0.91541
Zn Zn 0.774583 0.42186 0.360063 0.91541
Zn Zn 0.602819 0.0789601 0.387721 0.91541
Zn Zn 0.605374 0.330454 0.389444 0.91541
Zn Zn 0.857467 0.0823085 0.384439 0.91541
Zn Zn 0.85207 0.328891 0.382636 0.91541
Zn Zn 0.724757 0.0793381 0.138808 0.91541
Zn Zn 0.72313 0.326644 0.136513 0.91541
Zn Zn 0.976447 0.0784836 0.137753 0.91541
Zn Zn 0.97397 0.324766 0.134066 0.91541
Zn Zn 0.644667 0.170528 0.117316 0.91541
Zn Zn 0.64804 0.422794 0.111423 0.91541
Zn Zn 0.896287 0.168443 0.11348 0.91541
Zn Zn 0.895778 0.417647 0.113672 0.91541
Zn Zn 0.549649 1.00323857 0.374961 1.11764
Zn Zn 0.559052 0.251806 0.378198 1.11764
Zn Zn 0.803523 0.00192939 0.37187 1.11764
Zn Zn 0.808756 0.252783 0.378651 1.11764
Zn Zn 0.698307 0.501127 0.1243 1.11764
Zn Zn 0.68844 0.246918 0.122618 1.11764
Zn Zn 0.943078 0.495644 0.124483 1.11764
Zn Zn 0.947482 0.246029 0.124454 1.11764
H_ H_ 0.754397 0.144358 0.228473 0.1146
H_ H_ 0.747396 0.38782 0.226596 0.1146
H_ H_ 0.00499061 0.142141 0.225905 0.1146
H_ H_ 1.0072495 0.391086 0.229223 0.1146
H_ H_ 0.686493 0.208581 0.202082 0.1146
H_ H_ 0.691264 0.460224 0.193272 0.1146
H_ H_ 0.938974 0.210135 0.193631 0.1146
H_ H_ 0.936126 0.457632 0.198357 0.1146
H_ H_ 0.717982 0.224291 0.273081 0.1146
H_ H_ 0.726267 0.47619 0.265196 0.1146
H_ H_ 0.976751 0.22987 0.266156 0.1146
H_ H_ 0.966723 0.471019 0.272362 0.1146
H_ H_ 0.675858 0.0659422 0.0403646 0.42917
H_ H_ 0.690312 0.316839 0.0369512 0.42917
H_ H_ 0.948164 0.0738263 0.0396278 0.42917
H_ H_ 0.934678 0.319809 0.0350699 0.42917
H_ H_ 0.641033 0.103578 0.0687098 0.1146
H_ H_ 0.665909 0.363655 0.054903 0.1146
H_ H_ 0.908023 0.104688 0.0552062 0.1146
H_ H_ 0.894701 0.349268 0.0624532 0.1146
H_ H_ 0.601848 0.0405404 0.0772437 0.1146
H_ H_ 0.605997 0.334471 0.0905558 0.1146
H_ H_ 0.852802 0.048502 0.0533081 0.1146
H_ H_ 0.856483 0.324197 0.117109 0.1146
H_ H_ 0.625853 0.0626484 0.131261 0.1146
H_ H_ 0.607332 0.303378 0.0409897 0.1146
H_ H_ 0.876035 0.0564993 0.10642 0.1146
H_ H_ 0.848659 0.287232 0.0652378 0.1146
H_ H_ 0.593082 0.0734896 0.107084 0.1146
H_ H_ 0.623158 0.304047 0.0903177 0.1146
H_ H_ 0.855652 0.0836219 0.0961376 0.1146
H_ H_ 0.883869 0.30076 0.112873 0.1146
H_ H_ 0.583772 0.223454 0.402009 0.42917
H_ H_ 0.582782 0.468987 0.384131 0.42917
H_ H_ 0.836127 0.221467 0.396908 0.42917
H_ H_ 0.823358 0.472379 0.402143 0.42917
H_ H_ 0.6079 0.112547 0.0209837 0.1146
H_ H_ 0.604936 0.372166 0.016816 0.1146
H_ H_ 0.860927 0.112522 0.0223961 0.1146
H_ H_ 0.850622 0.36589 0.0176848 0.1146
H_ H_ 0.726492 0.0460036 0.0486273 0.1146
H_ H_ 0.727731 0.287281 0.0514177 0.1146
H_ H_ 0.977496 0.0434891 0.0497602 0.1146
H_ H_ 0.981138 0.284652 0.0514119 0.1146
H_ H_ 0.75176 0.0196028 0.483634 0.1146
H_ H_ 0.759076 0.267076 0.488283 0.1146
H_ H_ 0.997451 0.0270107 0.478723 0.1146
H_ H_ 0.0005699999999999594 0.270989 0.478008 0.1146
H_ H_ 0.629536 0.133906 0.191982 0.42917
H_ H_ 0.632908 0.386672 0.195179 0.42917
H_ H_ 0.88175 0.139769 0.197263 0.42917
H_ H_ 0.857445 0.362601 0.194865 0.42917
H_ H_ 0.552134 0.123687 0.194152 0.1146
H_ H_ 0.554266 0.379176 0.197169 0.1146
H_ H_ 0.803509 0.127034 0.202695 0.1146
H_ H_ 0.798374 0.377122 0.194922 0.1146
H_ H_ 0.619039 0.189803 0.194919 0.1146
H_ H_ 0.623736 0.444665 0.197967 0.1146
H_ H_ 0.84702 0.186749 0.236328 0.1146
H_ H_ 0.845655 0.432345 0.230832 0.1146
H_ H_ 0.570754 0.182087 0.185235 0.1146
H_ H_ 0.576846 0.438205 0.18533 0.1146
H_ H_ 0.865634 0.188435 0.186532 0.1146
H_ H_ 0.866873 0.441291 0.187006 0.1146
H_ H_ 0.589603 0.182094 0.236436 0.1146
H_ H_ 0.593858 0.435495 0.23631 0.1146
H_ H_ 0.814411 0.18499 0.192148 0.1146
H_ H_ 0.815173 0.428706 0.186716 0.1146
H_ H_ 0.612775 0.0312251 0.374402 0.42917
H_ H_ 0.620351 0.284017 0.377132 0.42917
H_ H_ 0.866285 0.0319235 0.368396 0.42917
H_ H_ 0.87023 0.284581 0.373056 0.42917
H_ H_ 0.494321 0.108094 0.272499 0.1146
H_ H_ 0.497668 0.358765 0.275275 0.1146
H_ H_ 0.758123 0.116353 0.268668 0.1146
H_ H_ 0.750244 0.358898 0.267165 0.1146
H_ H_ 0.5519 0.0351607 0.308378 0.1146
H_ H_ 0.562265 0.292341 0.308998 0.1146
H_ H_ 0.822884 0.0469475 0.301663 0.1146
H_ H_ 0.805059 0.286222 0.298157 0.1146
H_ H_ 0.526632 0.0220892 0.233209 0.1146
H_ H_ 0.526138 0.272969 0.236357 0.1146
H_ H_ 0.783419 0.0255323 0.231661 0.1146
H_ H_ 0.767574 0.26834 0.226729 0.1146
H_ H_ 0.570449 0.180458 0.461882 0.42917
H_ H_ 0.572878 0.446752 0.448102 0.42917
H_ H_ 0.812932 0.176398 0.456038 0.42917
H_ H_ 0.795242 0.41812 0.459915 0.42917
H_ H_ 0.606269 0.145739 0.432904 0.1146
H_ H_ 0.596669 0.398223 0.443911 0.1146
H_ H_ 0.85825 0.147616 0.437473 0.1146
H_ H_ 0.835235 0.383737 0.440112 0.1146
H_ H_ 0.652202 0.207743 0.433983 0.1146
H_ H_ 0.653738 0.456073 0.439343 0.1146
H_ H_ 0.904524 0.212035 0.42931 0.1146
H_ H_ 0.891648 0.421027 0.406678 0.1146
H_ H_ 0.627247 0.18963 0.378729 0.1146
H_ H_ 0.620808 0.444706 0.391892 0.1146
H_ H_ 0.874802 0.190394 0.375381 0.1146
H_ H_ 0.886182 0.445848 0.454772 0.1146
H_ H_ 0.656305 0.173437 0.399527 0.1146
H_ H_ 0.647275 0.419826 0.394257 0.1146
H_ H_ 0.904296 0.174234 0.393726 0.1146
H_ H_ 0.866634 0.444978 0.405904 0.1146
H_ H_ 0.671319 0.0322484 0.110255 0.42917
H_ H_ 0.665769 0.280329 0.103481 0.42917
H_ H_ 0.921423 0.0282406 0.102248 0.42917
H_ H_ 0.924812 0.275022 0.0934572 0.42917
H_ H_ 0.643423 0.141354 0.483133 0.1146
H_ H_ 0.64422 0.388629 0.479147 0.1146
H_ H_ 0.899708 0.138447 0.48402 0.1146
H_ H_ 0.889886 0.38819 0.479605 0.1146
H_ H_ 0.517344 0.216696 0.445767 0.1146
H_ H_ 0.517548 0.457713 0.448747 0.1146
H_ H_ 0.771535 0.209818 0.442824 0.1146
H_ H_ 0.772153 0.465733 0.449867 0.1146
H_ H_ 0.500907 0.226004 0.0199947 0.1146
H_ H_ 0.502987 0.473157 0.0236473 0.1146
H_ H_ 0.745733 0.232401 0.0171482 0.1146
H_ H_ 0.760773 0.473521 0.0262474 0.1146
H_ H_ 0.614415 0.0949254 0.293845 0.42917
H_ H_ 0.634085 0.359702 0.29009 0.42917
H_ H_ 0.882706 0.112748 0.28663 0.42917
H_ H_ 0.890201 0.383106 0.30493 0.42917
H_ H_ 0.693787 0.125372 0.30652 0.1146
H_ H_ 0.700731 0.368878 0.30268 0.1146
H_ H_ 0.951908 0.121973 0.302742 0.1146
H_ H_ 0.94906 0.371477 0.302 0.1146
H_ H_ 0.703347 0.075838 0.313864 0.1146
H_ H_ 0.639414 0.297492 0.302655 0.1146
H_ H_ 0.941254 0.0695169 0.312237 0.1146
H_ H_ 0.883863 0.308017 0.319248 0.1146
H_ H_ 0.663045 0.0629877 0.269488 0.1146
H_ H_ 0.690501 0.313151 0.330222 0.1146
H_ H_ 0.910436 0.0645639 0.267355 0.1146
H_ H_ 0.932487 0.313745 0.310251 0.1146
H_ H_ 0.648694 0.0513044 0.315151 0.1146
H_ H_ 0.679955 0.306607 0.27607 0.1146
H_ H_ 0.888997 0.0557708 0.31615 0.1146
H_ H_ 0.898526 0.311489 0.271495 0.1146
H_ H_ 0.628505 0.213443 0.128001 0.42917
H_ H_ 0.639159 0.467936 0.134844 0.42917
H_ H_ 0.883639 0.211897 0.118213 0.42917
H_ H_ 0.88328 0.464219 0.131286 0.42917
C_ C_ 0.740994 0.158803 0.222811 -0.12085
C_ C_ 0.741048 0.406759 0.219245 -0.12085
C_ C_ 0.989287 0.156438 0.220758 -0.12085
C_ C_ 0.988229 0.402962 0.223867 -0.12085
C_ C_ 0.512957 0.195416 0.302388 0.6956
C_ C_ 0.50849 0.44551 0.302585 0.6956
C_ C_ 0.765913 0.198777 0.302119 0.6956
C_ C_ 0.767949 0.449231 0.295561 0.6956
C_ C_ 0.744401 0.188394 0.257036 -0.16651
C_ C_ 0.745628 0.437504 0.251701 -0.16651
C_ C_ 0.991352 0.18601 0.25291 -0.16651
C_ C_ 0.989717 0.432746 0.256706 -0.16651
C_ C_ 0.702129 0.194653 0.206593 -0.12085
C_ C_ 0.705448 0.445655 0.200237 -0.12085
C_ C_ 0.950043 0.193136 0.2023 -0.12085
C_ C_ 0.949729 0.441277 0.205148 -0.12085
C_ C_ 0.725281 0.152152 0.181099 0.16698
C_ C_ 0.720745 0.398021 0.177577 0.16698
C_ C_ 0.972148 0.14729 0.177953 0.16698
C_ C_ 0.967238 0.392444 0.181569 0.16698
C_ C_ 0.680691 0.121824 0.125909 0.36401
C_ C_ 0.683086 0.372456 0.118692 0.36401
C_ C_ 0.937496 0.120353 0.116602 0.36401
C_ C_ 0.931757 0.36657 0.121726 0.36401
C_ C_ 0.705973 0.171363 0.172836 0.16698
C_ C_ 0.706345 0.418841 0.167964 0.16698
C_ C_ 0.954354 0.16747 0.168346 0.16698
C_ C_ 0.94728 0.411956 0.174582 0.16698
C_ C_ 0.723725 0.205189 0.248734 -0.12085
C_ C_ 0.725212 0.454686 0.240931 -0.12085
C_ C_ 0.974178 0.205035 0.240971 -0.12085
C_ C_ 0.967794 0.449108 0.247242 -0.12085
C_ C_ 0.652858 0.0916874 0.0886251 0.15351
C_ C_ 0.666432 0.347997 0.07386 0.15351
C_ C_ 0.911677 0.091659 0.0768659 0.15351
C_ C_ 0.904585 0.337092 0.0818547 0.15351
C_ C_ 0.617075 0.0657575 0.102379 -0.35079
C_ C_ 0.622041 0.320575 0.0726589 -0.35079
C_ C_ 0.871027 0.0676335 0.0829556 -0.35079
C_ C_ 0.868681 0.3098 0.0932381 -0.35079
C_ C_ 0.577313 0.0996655 0.025914 -0.12085
C_ C_ 0.576991 0.356392 0.0242745 -0.12085
C_ C_ 0.830394 0.0999069 0.0260643 -0.12085
C_ C_ 0.828183 0.347299 0.0261221 -0.12085
C_ C_ 0.568058 0.0564912 0.451969 0.6956
C_ C_ 0.566637 0.305404 0.451661 0.6956
C_ C_ 0.812499 0.0550825 0.444919 0.6956
C_ C_ 0.816486 0.305428 0.450445 0.6956
C_ C_ 0.556866 0.0685244 0.496377 -0.16651
C_ C_ 0.555764 0.316556 0.496425 -0.16651
C_ C_ 0.805114 0.0664289 0.490384 -0.16651
C_ C_ 0.808088 0.315353 0.49504 -0.16651
C_ C_ 0.752522 0.0616807 0.0400918 -0.12085
C_ C_ 0.754791 0.303385 0.0429042 -0.12085
C_ C_ 0.00898798 0.0579652 0.0439683 -0.12085
C_ C_ 0.00547769 0.301761 0.0437605 -0.12085
C_ C_ 0.565763 0.108214 0.0665657 0.16698
C_ C_ 0.569382 0.363865 0.0664121 0.16698
C_ C_ 0.816325 0.110616 0.0667495 0.16698
C_ C_ 0.815926 0.355087 0.0658031 0.16698
C_ C_ 0.56377 0.121697 0.131762 0.36401
C_ C_ 0.565011 0.377511 0.132632 0.36401
C_ C_ 0.811728 0.123712 0.132773 0.36401
C_ C_ 0.813556 0.370377 0.131738 0.36401
C_ C_ 0.528894 0.0864752 0.0736573 0.16698
C_ C_ 0.534433 0.339501 0.0743636 0.16698
C_ C_ 0.779292 0.0911789 0.0730138 0.16698
C_ C_ 0.779081 0.334363 0.0733356 0.16698
C_ C_ 0.519242 0.0477371 0.504948 -0.12085
C_ C_ 0.521666 0.293848 0.507327 -0.12085
C_ C_ 0.77013 0.0453128 0.50373 -0.12085
C_ C_ 0.777545 0.292211 0.508964 -0.12085
C_ C_ 0.577974 0.137446 0.180224 0.15351
C_ C_ 0.580127 0.390211 0.181129 0.15351
C_ C_ 0.826979 0.13825 0.18191 0.15351
C_ C_ 0.824686 0.386936 0.179093 0.15351
C_ C_ 0.589642 0.174769 0.200854 -0.35079
C_ C_ 0.592176 0.427902 0.201919 -0.35079
C_ C_ 0.838116 0.177189 0.200653 -0.35079
C_ C_ 0.840906 0.424851 0.19665 -0.35079
C_ C_ 0.506251 0.0914674 0.280258 -0.12085
C_ C_ 0.509518 0.344271 0.282618 -0.12085
C_ C_ 0.768128 0.0991004 0.276787 -0.12085
C_ C_ 0.762156 0.343315 0.27289 -0.12085
C_ C_ 0.746348 0.0568505 0.19887 0.6956
C_ C_ 0.737133 0.301894 0.194335 0.6956
C_ C_ 0.99061 0.0542181 0.198338 0.6956
C_ C_ 0.985202 0.305031 0.201048 0.6956
C_ C_ 0.503161 0.0601335 0.247288 -0.16651
C_ C_ 0.509721 0.315794 0.25032 -0.16651
C_ C_ 0.761968 0.066628 0.245076 -0.16651
C_ C_ 0.757144 0.312237 0.240276 -0.16651
C_ C_ 0.540138 0.0514602 0.299054 -0.12085
C_ C_ 0.547644 0.305449 0.299925 -0.12085
C_ C_ 0.805111 0.0594281 0.295148 -0.12085
C_ C_ 0.793657 0.303218 0.291654 -0.12085
C_ C_ 0.526682 0.101447 0.320348 0.16698
C_ C_ 0.527873 0.351341 0.323903 0.16698
C_ C_ 0.786232 0.107487 0.318015 0.16698
C_ C_ 0.785771 0.354262 0.311056 0.16698
C_ C_ 0.570048 0.130356 0.376763 0.36401
C_ C_ 0.566098 0.37962 0.383005 0.36401
C_ C_ 0.822582 0.133613 0.378792 0.36401
C_ C_ 0.812791 0.374892 0.377506 0.36401
C_ C_ 0.542369 0.0810611 0.328747 0.16698
C_ C_ 0.546606 0.331937 0.331257 0.16698
C_ C_ 0.802263 0.0867863 0.325854 0.16698
C_ C_ 0.805145 0.335428 0.318135 0.16698
C_ C_ 0.522052 0.0413063 0.258254 -0.12085
C_ C_ 0.524021 0.29355 0.261657 -0.12085
C_ C_ 0.784413 0.0489788 0.25531 -0.12085
C_ C_ 0.771432 0.291989 0.251819 -0.12085
C_ C_ 0.596165 0.158584 0.415908 0.15351
C_ C_ 0.5935 0.410397 0.420827 0.15351
C_ C_ 0.848781 0.161173 0.4173 0.15351
C_ C_ 0.832293 0.400833 0.422318 0.15351
C_ C_ 0.634555 0.184208 0.405781 -0.35079
C_ C_ 0.632441 0.433831 0.411812 -0.35079
C_ C_ 0.884752 0.187631 0.403959 -0.35079
C_ C_ 0.871106 0.42926 0.423062 -0.35079
C_ C_ 0.673019 0.154977 0.475956 -0.12085
C_ C_ 0.675107 0.403829 0.476176 -0.12085
C_ C_ 0.928807 0.153136 0.477948 -0.12085
C_ C_ 0.920237 0.401245 0.474065 -0.12085
C_ C_ 0.680965 0.192488 0.0519652 0.6956
C_ C_ 0.6886 0.445526 0.0507851 0.6956
C_ C_ 0.935774 0.191158 0.0509874 0.6956
C_ C_ 0.931455 0.440259 0.0492554 0.6956
C_ C_ 0.690371 0.183635 0.00703281 -0.16651
C_ C_ 0.700937 0.433331 0.00891418 -0.16651
C_ C_ 0.943483 0.182609 0.00476036 -0.16651
C_ C_ 0.943757 0.430382 0.00520127 -0.16651
C_ C_ 0.489753 0.198372 0.453942 -0.12085
C_ C_ 0.492689 0.439415 0.457074 -0.12085
C_ C_ 0.746631 0.193415 0.454808 -0.12085
C_ C_ 0.745469 0.44665 0.455943 -0.12085
C_ C_ 0.685796 0.140183 0.437056 0.16698
C_ C_ 0.686169 0.393127 0.435044 0.16698
C_ C_ 0.937388 0.145217 0.43394 0.16698
C_ C_ 0.933689 0.391099 0.434346 0.16698
C_ C_ 0.686648 0.123487 0.369182 0.36401
C_ C_ 0.690375 0.372768 0.369872 0.36401
C_ C_ 0.941681 0.128417 0.368969 0.36401
C_ C_ 0.93837 0.375449 0.365847 0.36401
C_ C_ 0.722946 0.160199 0.427011 0.16698
C_ C_ 0.719741 0.415055 0.424481 0.16698
C_ C_ 0.9747 0.166721 0.427149 0.16698
C_ C_ 0.971521 0.410811 0.425739 0.16698
C_ C_ 0.727501 0.20512 0.99628 -0.12085
C_ C_ 0.739074 0.451331 1.00115 -0.12085
C_ C_ 0.982412 0.203342 0.995973 -0.12085
C_ C_ 0.977059 0.453015 0.993886 -0.12085
C_ C_ 0.671329 0.106822 0.321511 0.15351
C_ C_ 0.677694 0.355001 0.320208 0.15351
C_ C_ 0.928629 0.111566 0.320965 0.15351
C_ C_ 0.92313 0.360137 0.318496 0.15351
C_ C_ 0.671328 0.0721663 0.305236 -0.35079
C_ C_ 0.671705 0.317852 0.308279 -0.35079
C_ C_ 0.914785 0.0725763 0.302734 -0.35079
C_ C_ 0.909057 0.3212 0.303436 -0.35079
N_ N_ 0.70831 0.120254 0.152009 -0.51457
N_ N_ 0.706257 0.366973 0.14531 -0.51457
N_ N_ 0.960124 0.116994 0.145515 -0.51457
N_ N_ 0.957359 0.363088 0.148703 -0.51457
N_ N_ 0.679884 0.153676 0.136532 -0.51457
N_ N_ 0.682622 0.404262 0.130906 -0.51457
N_ N_ 0.93176 0.149954 0.130471 -0.51457
N_ N_ 0.928413 0.397619 0.135526 -0.51457
N_ N_ 0.58846 0.131679 0.10272 -0.51457
N_ N_ 0.591423 0.387921 0.10305 -0.51457
N_ N_ 0.839131 0.132526 0.104495 -0.51457
N_ N_ 0.837938 0.381307 0.102319 -0.51457
N_ N_ 0.526721 0.0957617 0.115279 -0.51457
N_ N_ 0.530703 0.34763 0.115042 -0.51457
N_ N_ 0.775823 0.0950393 0.114176 -0.51457
N_ N_ 0.776328 0.343829 0.115288 -0.51457
N_ N_ 0.542832 0.134206 0.351275 -0.51457
N_ N_ 0.540063 0.381948 0.356292 -0.51457
N_ N_ 0.798421 0.137466 0.351373 -0.51457
N_ N_ 0.793036 0.382354 0.347473 -0.51457
N_ N_ 0.569476 0.0979117 0.364857 -0.51457
N_ N_ 0.571088 0.349931 0.368717 -0.51457
N_ N_ 0.823527 0.102302 0.36497 -0.51457
N_ N_ 0.823136 0.347971 0.358641 -0.51457
N_ N_ 0.661073 0.116789 0.400016 -0.51457
N_ N_ 0.663504 0.365934 0.399234 -0.51457
N_ N_ 0.914446 0.120638 0.397096 -0.51457
N_ N_ 0.911214 0.368448 0.395698 -0.51457
N_ N_ 0.723398 0.150978 0.38532 -0.51457
N_ N_ 0.725675 0.400851 0.384782 -0.51457
N_ N_ 0.977611 0.15748 0.386414 -0.51457
N_ N_ 0.974906 0.401204 0.384203 -0.51457
O_ O_ 0.528134 0.229369 0.324724 -0.61362
O_ O_ 0.514881 0.47503 0.329892 -0.61362
O_ O_ 0.770454 0.227818 0.33188 -0.61362
O_ O_ 0.781816 0.48118 0.319638 -0.61362
O_ O_ 0.561758 0.216922 0.385346 -0.98607
O_ O_ 0.558401 0.466295 0.380069 -0.98607
O_ O_ 0.813849 0.216978 0.383121 -0.98607
O_ O_ 0.805188 0.465625 0.381592 -0.98607
O_ O_ 0.519752 0.173407 0.315965 -0.61362
O_ O_ 0.520843 0.425618 0.313996 -0.61362
O_ O_ 0.771229 0.174928 0.313419 -0.61362
O_ O_ 0.770888 0.425489 0.308096 -0.61362
O_ O_ 0.670726 0.074202 0.0663377 -0.55956
O_ O_ 0.688918 0.332774 0.059294 -0.55956
O_ O_ 0.929225 0.0750254 0.0557717 -0.55956
O_ O_ 0.922858 0.321216 0.0578436 -0.55956
O_ O_ 0.545934 0.0261675 0.426302 -0.61362
O_ O_ 0.546461 0.2739 0.425176 -0.61362
O_ O_ 0.789193 0.0220559 0.42077 -0.61362
O_ O_ 0.794929 0.273452 0.425214 -0.61362
O_ O_ 0.592061 0.0360356 0.374915 -0.98607
O_ O_ 0.599153 0.286486 0.376792 -0.98607
O_ O_ 0.846598 0.0371103 0.373969 -0.98607
O_ O_ 0.847864 0.287235 0.374278 -0.98607
O_ O_ 0.594812 0.0811399 0.439312 -0.61362
O_ O_ 0.593738 0.328135 0.438877 -0.61362
O_ O_ 0.836685 0.0770007 0.429244 -0.61362
O_ O_ 0.842002 0.328716 0.436178 -0.61362
O_ O_ 0.605883 0.130217 0.191941 -0.55956
O_ O_ 0.606585 0.381111 0.190361 -0.55956
O_ O_ 0.85636 0.132511 0.190372 -0.55956
O_ O_ 0.851331 0.378632 0.192935 -0.55956
O_ O_ 0.73504 0.0241144 0.174669 -0.61362
O_ O_ 0.725198 0.269128 0.16962 -0.61362
O_ O_ 0.983077 0.023385 0.171876 -0.61362
O_ O_ 0.975418 0.273112 0.176821 -0.61362
O_ O_ 0.692975 0.0354757 0.121859 -0.98607
O_ O_ 0.688083 0.284386 0.116584 -0.98607
O_ O_ 0.9432 0.0340234 0.118075 -0.98607
O_ O_ 0.941678 0.280349 0.114426 -0.98607
O_ O_ 0.732245 0.0761919 0.189496 -0.61362
O_ O_ 0.719634 0.320002 0.185003 -0.61362
O_ O_ 0.979189 0.0745021 0.187996 -0.61362
O_ O_ 0.985108 0.328289 0.186166 -0.61362
O_ O_ 0.578334 0.17563 0.438456 -0.55956
O_ O_ 0.574933 0.427696 0.439781 -0.55956
O_ O_ 0.830435 0.17663 0.439973 -0.55956
O_ O_ 0.81019 0.413465 0.441737 -0.55956
O_ O_ 0.701525 0.222833 0.0797426 -0.61362
O_ O_ 0.706772 0.477651 0.0738024 -0.61362
O_ O_ 0.959941 0.222208 0.0785534 -0.61362
O_ O_ 0.954753 0.469985 0.077142 -0.61362
O_ O_ 0.650421 0.212133 0.127583 -0.98607
O_ O_ 0.660034 0.466025 0.127862 -0.98607
O_ O_ 0.905268 0.211035 0.125032 -0.98607
O_ O_ 0.903985 0.461481 0.127947 -0.98607
O_ O_ 0.654275 0.168543 0.0642997 -0.61362
O_ O_ 0.65644 0.426625 0.0599906 -0.61362
O_ O_ 0.90215 0.172514 0.0630323 -0.61362
O_ O_ 0.905319 0.416359 0.0620492 -0.61362
O_ O_ 0.635686 0.10422 0.312862 -0.55956
O_ O_ 0.644919 0.354577 0.307296 -0.55956
O_ O_ 0.898557 0.115874 0.307831 -0.55956
O_ O_ 0.895788 0.366869 0.306227 -0.55956
Zn Zn 0.523077 0.175892 0.869743 0.91541
Zn Zn 0.525289 0.423394 0.865446 0.91541
Zn Zn 0.769464 0.172478 0.86358 0.91541
Zn Zn 0.778863 0.425429 0.865838 0.91541
Zn Zn 0.601138 0.0818194 0.887054 0.91541
Zn Zn 0.605379 0.332434 0.886953 0.91541
Zn Zn 0.851391 0.0816527 0.88342 0.91541
Zn Zn 0.852119 0.328913 0.885307 0.91541
Zn Zn 0.726603 0.0746942 0.630195 0.91541
Zn Zn 0.730836 0.327559 0.636569 0.91541
Zn Zn 0.970268 0.0757937 0.63562 0.91541
Zn Zn 0.980215 0.325868 0.636179 0.91541
Zn Zn 0.649806 0.169707 0.615184 0.91541
Zn Zn 0.64789 0.420247 0.613837 0.91541
Zn Zn 0.901795 0.172236 0.612119 0.91541
Zn Zn 0.902309 0.420852 0.615821 0.91541
Zn Zn 0.555839 1.00392597 0.875821 1.11764
Zn Zn 0.553533 0.256288 0.875264 1.11764
Zn Zn 0.804539 0.00206656 0.875633 1.11764
Zn Zn 0.802014 0.251165 0.871645 1.11764
Zn Zn 0.697688 0.497678 0.622196 1.11764
Zn Zn 0.706149 0.250197 0.627043 1.11764
Zn Zn 0.95005 0.496839 0.628577 1.11764
Zn Zn 0.952394 0.250845 0.623312 1.11764
H_ H_ 0.751967 0.136299 0.726559 0.1146
H_ H_ 0.736378 0.383442 0.735179 0.1146
H_ H_ -0.010098999999999969 0.136321 0.734155 0.1146
H_ H_ 0.00521774 0.387233 0.728151 0.1146
H_ H_ 0.68778 0.203722 0.690876 0.1146
H_ H_ 0.695462 0.461964 0.689234 0.1146
H_ H_ 0.945072 0.213456 0.691158 0.1146
H_ H_ 0.940662 0.454257 0.694024 0.1146
H_ H_ 0.712691 0.218668 0.765838 0.1146
H_ H_ 0.731228 0.482401 0.765006 0.1146
H_ H_ 0.979007 0.230524 0.767324 0.1146
H_ H_ 0.969629 0.46903 0.770958 0.1146
H_ H_ 0.703472 0.0809142 0.534884 0.42917
H_ H_ 0.68964 0.318825 0.530915 0.42917
H_ H_ 0.944079 0.079385 0.544366 0.42917
H_ H_ 0.932236 0.307537 0.540553 0.42917
H_ H_ 0.656198 0.105268 0.554023 0.1146
H_ H_ 0.656303 0.352797 0.558521 0.1146
H_ H_ 0.895311 0.102286 0.562995 0.1146
H_ H_ 0.904002 0.352897 0.558464 0.1146
H_ H_ 0.638166 0.0508454 0.596461 0.1146
H_ H_ 0.611846 0.294196 0.558605 0.1146
H_ H_ 0.869513 0.0469715 0.609274 0.1146
H_ H_ 0.880455 0.307615 0.619402 0.1146
H_ H_ 0.61018 0.0748237 0.594151 0.1146
H_ H_ 0.637625 0.303429 0.611894 0.1146
H_ H_ 0.85448 0.0818375 0.619614 0.1146
H_ H_ 0.856987 0.331708 0.609811 0.1146
H_ H_ 0.617288 0.0501766 0.542292 0.1146
H_ H_ 0.609884 0.326847 0.60635 0.1146
H_ H_ 0.839702 0.0496518 0.571687 0.1146
H_ H_ 0.854213 0.293527 0.570844 0.1146
H_ H_ 0.576753 0.224909 0.900873 0.42917
H_ H_ 0.586413 0.473969 0.894226 0.42917
H_ H_ 0.82099 0.221469 0.899886 0.42917
H_ H_ 0.836929 0.473468 0.881532 0.42917
H_ H_ 0.608312 0.117228 0.52671 0.1146
H_ H_ 0.609584 0.365586 0.525375 0.1146
H_ H_ 0.860836 0.111942 0.519375 0.1146
H_ H_ 0.863896 0.362636 0.520347 0.1146
H_ H_ 0.736296 0.034559 0.553875 0.1146
H_ H_ 0.738015 0.286459 0.556538 0.1146
H_ H_ 0.97859 0.0424646 0.550467 0.1146
H_ H_ 0.99033 0.282768 0.550759 0.1146
H_ H_ 0.740501 0.0292673 0.974314 0.1146
H_ H_ 0.742945 0.273063 0.973174 0.1146
H_ H_ 0.997541 0.0274671 0.976836 0.1146
H_ H_ -0.002314999999999956 0.270742 0.978843 0.1146
H_ H_ 0.630692 0.132777 0.696021 0.42917
H_ H_ 0.618878 0.390108 0.712766 0.42917
H_ H_ 0.878874 0.131189 0.695651 0.42917
H_ H_ 0.880266 0.386702 0.688467 0.42917
H_ H_ 0.553874 0.120964 0.69683 0.1146
H_ H_ 0.5528 0.381668 0.69737 0.1146
H_ H_ 0.80607 0.127372 0.698418 0.1146
H_ H_ 0.807955 0.382378 0.696118 0.1146
H_ H_ 0.563855 0.177675 0.707662 0.1146
H_ H_ 0.560708 0.438296 0.677452 0.1146
H_ H_ 0.849932 0.191913 0.72762 0.1146
H_ H_ 0.832149 0.445799 0.725724 0.1146
H_ H_ 0.609678 0.182145 0.739789 0.1146
H_ H_ 0.579772 0.44147 0.727063 0.1146
H_ H_ 0.864547 0.192937 0.674945 0.1146
H_ H_ 0.864626 0.446947 0.681846 0.1146
H_ H_ 0.614361 0.190663 0.690608 0.1146
H_ H_ 0.613904 0.451758 0.688372 0.1146
H_ H_ 0.814163 0.180751 0.683512 0.1146
H_ H_ 0.812022 0.433634 0.672955 0.1146
H_ H_ 0.616834 0.0357902 0.875568 0.42917
H_ H_ 0.614411 0.283593 0.868658 0.42917
H_ H_ 0.865805 0.0362989 0.872334 0.42917
H_ H_ 0.864916 0.283023 0.86473 0.42917
H_ H_ 0.49988 0.113859 0.769755 0.1146
H_ H_ 0.495019 0.35891 0.76883 0.1146
H_ H_ 0.738134 0.106436 0.774886 0.1146
H_ H_ 0.753096 0.363264 0.776069 0.1146
H_ H_ 0.55754 0.0424715 0.807303 0.1146
H_ H_ 0.558909 0.28843 0.801502 0.1146
H_ H_ 0.816183 0.0467614 0.803208 0.1146
H_ H_ 0.807716 0.289855 0.810265 0.1146
H_ H_ 0.518119 0.0219855 0.732431 0.1146
H_ H_ 0.525612 0.273645 0.729803 0.1146
H_ H_ 0.783682 0.0297008 0.731018 0.1146
H_ H_ 0.7736 0.272761 0.739247 0.1146
H_ H_ 0.570924 0.190398 0.965439 0.42917
H_ H_ 0.567972 0.43348 0.961434 0.42917
H_ H_ 0.820562 0.185119 0.970763 0.42917
H_ H_ 0.82838 0.437131 0.970965 0.42917
H_ H_ 0.600318 0.14733 0.935142 0.1146
H_ H_ 0.594437 0.393259 0.93759 0.1146
H_ H_ 0.846164 0.145584 0.937221 0.1146
H_ H_ 0.859755 0.398135 0.943387 0.1146
H_ H_ 0.622845 0.210611 0.90974 0.1146
H_ H_ 0.645444 0.416288 0.88746 0.1146
H_ H_ 0.895598 0.20642 0.943041 0.1146
H_ H_ 0.895638 0.417816 0.879611 0.1146
H_ H_ 0.638889 0.178996 0.880745 0.1146
H_ H_ 0.658206 0.447747 0.934961 0.1146
H_ H_ 0.866077 0.196446 0.890631 0.1146
H_ H_ 0.906654 0.44713 0.930142 0.1146
H_ H_ 0.654641 0.200039 0.935783 0.1146
H_ H_ 0.626357 0.445372 0.888422 0.1146
H_ H_ 0.89366 0.171753 0.895055 0.1146
H_ H_ 0.874173 0.446854 0.888704 0.1146
H_ H_ 0.678446 0.0250779 0.589105 0.42917
H_ H_ 0.677721 0.277352 0.60521 0.42917
H_ H_ 0.920563 0.0276205 0.59787 0.42917
H_ H_ 0.933123 0.279527 0.588852 0.42917
H_ H_ 0.638516 0.139122 0.980868 0.1146
H_ H_ 0.644483 0.391446 0.978393 0.1146
H_ H_ 0.88798 0.138442 0.978926 0.1146
H_ H_ 0.91014 0.377238 0.988854 0.1146
H_ H_ 0.513592 0.209788 0.947466 0.1146
H_ H_ 0.519282 0.462376 0.949636 0.1146
H_ H_ 0.766564 0.214993 0.952366 0.1146
H_ H_ 0.775297 0.459411 0.953976 0.1146
H_ H_ 0.49786 0.233612 0.516978 0.1146
H_ H_ 0.497815 0.47405 0.520227 0.1146
H_ H_ 0.756892 0.224692 0.521499 0.1146
H_ H_ 0.760292 0.474041 0.520508 0.1146
H_ H_ 0.621891 0.123029 0.7938 0.42917
H_ H_ 0.618227 0.349723 0.795275 0.42917
H_ H_ 0.878781 0.127632 0.805775 0.42917
H_ H_ 0.88295 0.365616 0.785394 0.42917
H_ H_ 0.692803 0.132789 0.806321 0.1146
H_ H_ 0.70131 0.375254 0.803934 0.1146
H_ H_ 0.948208 0.126713 0.801975 0.1146
H_ H_ 0.947526 0.371346 0.803927 0.1146
H_ H_ 0.647345 0.0693588 0.770733 0.1146
H_ H_ 0.672186 0.318266 0.7729 0.1146
H_ H_ 0.939611 0.0715102 0.805294 0.1146
H_ H_ 0.93286 0.312024 0.821765 0.1146
H_ H_ 0.633396 0.0650916 0.818648 0.1146
H_ H_ 0.645009 0.307722 0.813954 0.1146
H_ H_ 0.908633 0.0680044 0.76304 0.1146
H_ H_ 0.91707 0.309531 0.770459 0.1146
H_ H_ 0.687315 0.0773356 0.81192 0.1146
H_ H_ 0.695545 0.320905 0.820175 0.1146
H_ H_ 0.884143 0.0580112 0.807333 0.1146
H_ H_ 0.881349 0.304712 0.806652 0.1146
H_ H_ 0.64271 0.219184 0.634572 0.42917
H_ H_ 0.63718 0.46927 0.637308 0.42917
H_ H_ 0.88722 0.219584 0.625816 0.42917
H_ H_ 0.886856 0.467628 0.625222 0.42917
C_ C_ 0.741466 0.153839 0.719255 -0.12085
C_ C_ 0.732771 0.402416 0.724473 -0.12085
C_ C_ 0.981265 0.153035 0.724819 -0.12085
C_ C_ 0.99696 0.404527 0.720142 -0.12085
C_ C_ 0.507283 0.199304 0.805042 0.6956
C_ C_ 0.517237 0.448411 0.802909 0.6956
C_ C_ 0.764941 0.198448 0.795499 0.6956
C_ C_ 0.760608 0.447871 0.800682 0.6956
C_ C_ 0.742416 0.184008 0.752292 -0.16651
C_ C_ 0.737883 0.434871 0.755799 -0.16651
C_ C_ 0.991444 0.185821 0.754407 -0.16651
C_ C_ 0.996046 0.433058 0.753714 -0.16651
C_ C_ 0.703847 0.19152 0.700216 -0.12085
C_ C_ 0.705274 0.445358 0.700566 -0.12085
C_ C_ 0.961971 0.199903 0.698223 -0.12085
C_ C_ 0.957274 0.441564 0.70068 -0.12085
C_ C_ 0.726227 0.147205 0.676044 0.16698
C_ C_ 0.72269 0.396438 0.680707 0.16698
C_ C_ 0.968657 0.145648 0.680155 0.16698
C_ C_ 0.97893 0.396476 0.67665 0.16698
C_ C_ 0.688468 0.120885 0.617527 0.36401
C_ C_ 0.686959 0.369782 0.619677 0.36401
C_ C_ 0.930899 0.119164 0.621142 0.36401
C_ C_ 0.939199 0.368127 0.617878 0.36401
C_ C_ 0.711399 0.168842 0.667554 0.16698
C_ C_ 0.707744 0.41741 0.669325 0.16698
C_ C_ 0.957423 0.167586 0.66806 0.16698
C_ C_ 0.962811 0.417201 0.66693 0.16698
C_ C_ 0.72184 0.201571 0.74105 -0.12085
C_ C_ 0.725499 0.456428 0.742749 -0.12085
C_ C_ 0.977319 0.207697 0.742082 -0.12085
C_ C_ 0.974985 0.450511 0.743814 -0.12085
C_ C_ 0.665824 0.0935622 0.57501 0.15351
C_ C_ 0.665415 0.342029 0.577923 0.15351
C_ C_ 0.905946 0.0908362 0.583203 0.15351
C_ C_ 0.910908 0.339324 0.579523 0.15351
C_ C_ 0.629781 0.0641632 0.576987 -0.35079
C_ C_ 0.630081 0.314796 0.590145 -0.35079
C_ C_ 0.866752 0.0656448 0.59506 -0.35079
C_ C_ 0.87378 0.316846 0.595374 -0.35079
C_ C_ 0.579851 0.100023 0.529408 -0.12085
C_ C_ 0.580063 0.3489 0.527458 -0.12085
C_ C_ 0.832614 0.0978657 0.524491 -0.12085
C_ C_ 0.834023 0.347759 0.526185 -0.12085
C_ C_ 0.563275 0.0592567 0.95019 0.6956
C_ C_ 0.563819 0.313189 0.950246 0.6956
C_ C_ 0.813739 0.0595852 0.947357 0.6956
C_ C_ 0.813867 0.307641 0.946774 0.6956
C_ C_ 0.551426 0.068831 0.993433 -0.16651
C_ C_ 0.55092 0.32411 0.99241 -0.16651
C_ C_ 0.801684 0.0715966 0.991118 -0.16651
C_ C_ 0.801587 0.31935 0.991216 -0.16651
C_ C_ 0.761342 0.054539 0.544781 -0.12085
C_ C_ 0.765367 0.304315 0.549045 -0.12085
C_ C_ 0.00608512 0.0583579 0.545194 -0.12085
C_ C_ 0.0114076 0.303854 0.542635 -0.12085
C_ C_ 0.567024 0.107054 0.567242 0.16698
C_ C_ 0.566357 0.359955 0.566418 0.16698
C_ C_ 0.821102 0.107001 0.565391 0.16698
C_ C_ 0.821036 0.357802 0.564628 0.16698
C_ C_ 0.563747 0.123949 0.634661 0.36401
C_ C_ 0.567359 0.378094 0.634457 0.36401
C_ C_ 0.818717 0.123846 0.632255 0.36401
C_ C_ 0.819676 0.376161 0.633498 0.36401
C_ C_ 0.529096 0.0868686 0.574168 0.16698
C_ C_ 0.529567 0.338548 0.575495 0.16698
C_ C_ 0.785445 0.0854851 0.573913 0.16698
C_ C_ 0.786792 0.336413 0.575694 0.16698
C_ C_ 0.517992 0.0448962 0.00412746 -0.12085
C_ C_ 0.515595 0.302423 0.00468746 -0.12085
C_ C_ 0.763507 0.0523751 -0.00150316 -0.12085
C_ C_ 0.764413 0.297527 0.0001100000000000545 -0.12085
C_ C_ 0.579398 0.135816 0.68398 0.15351
C_ C_ 0.578588 0.396733 0.681005 0.15351
C_ C_ 0.831284 0.140457 0.680381 0.15351
C_ C_ 0.830926 0.396114 0.680171 0.15351
C_ C_ 0.592554 0.174264 0.706028 -0.35079
C_ C_ 0.584097 0.433685 0.693193 -0.35079
C_ C_ 0.841278 0.178057 0.692623 -0.35079
C_ C_ 0.835806 0.433011 0.691986 -0.35079
C_ C_ 0.506788 0.0965322 0.779585 -0.12085
C_ C_ 0.506285 0.342404 0.777354 -0.12085
C_ C_ 0.756731 0.0950805 0.779565 -0.12085
C_ C_ 0.762662 0.346348 0.782441 -0.12085
C_ C_ 0.73651 0.0535093 0.699232 0.6956
C_ C_ 0.740494 0.304235 0.704715 0.6956
C_ C_ 0.989611 0.0523923 0.696246 0.6956
C_ C_ 0.985539 0.300864 0.700781 0.6956
C_ C_ 0.502008 0.064499 0.748788 -0.16651
C_ C_ 0.501405 0.310995 0.744948 -0.16651
C_ C_ 0.758883 0.0682208 0.744121 -0.16651
C_ C_ 0.759084 0.315603 0.750322 -0.16651
C_ C_ 0.541379 0.0567553 0.800042 -0.12085
C_ C_ 0.542512 0.302677 0.796988 -0.12085
C_ C_ 0.80199 0.0614149 0.795618 -0.12085
C_ C_ 0.793457 0.304326 0.802571 -0.12085
C_ C_ 0.527172 0.107106 0.822486 0.16698
C_ C_ 0.525436 0.351132 0.819326 0.16698
C_ C_ 0.776773 0.104442 0.820105 0.16698
C_ C_ 0.778643 0.354235 0.824707 0.16698
C_ C_ 0.561019 0.130439 0.882733 0.36401
C_ C_ 0.563014 0.377809 0.877789 0.36401
C_ C_ 0.811693 0.130942 0.881108 0.36401
C_ C_ 0.817973 0.381518 0.885061 0.36401
C_ C_ 0.543797 0.0874326 0.829978 0.16698
C_ C_ 0.543178 0.331453 0.828445 0.16698
C_ C_ 0.795058 0.0854713 0.828443 0.16698
C_ C_ 0.793565 0.333703 0.83412 0.16698
C_ C_ 0.520246 0.0446823 0.758897 -0.12085
C_ C_ 0.522655 0.292644 0.756141 -0.12085
C_ C_ 0.780878 0.0506547 0.755027 -0.12085
C_ C_ 0.773349 0.294829 0.762389 -0.12085
C_ C_ 0.590525 0.161792 0.91927 0.15351
C_ C_ 0.590618 0.406705 0.916568 0.15351
C_ C_ 0.837681 0.159555 0.920491 0.15351
C_ C_ 0.846863 0.409702 0.922327 0.15351
C_ C_ 0.629332 0.188973 0.910335 -0.35079
C_ C_ 0.631838 0.431299 0.908567 -0.35079
C_ C_ 0.876206 0.186684 0.91256 -0.35079
C_ C_ 0.881412 0.430349 0.904092 -0.35079
C_ C_ 0.667313 0.152524 0.974835 -0.12085
C_ C_ 0.674277 0.40411 0.976137 -0.12085
C_ C_ 0.918075 0.15151 0.972181 -0.12085
C_ C_ 0.922311 0.39648 0.974427 -0.12085
C_ C_ 0.692578 0.197806 0.551225 0.6956
C_ C_ 0.686258 0.445097 0.551112 0.6956
C_ C_ 0.942404 0.19404 0.55251 0.6956
C_ C_ 0.939495 0.440708 0.551875 0.6956
C_ C_ 0.70176 0.183736 0.507077 -0.16651
C_ C_ 0.699154 0.433859 0.507609 -0.16651
C_ C_ 0.954483 0.182965 0.508928 -0.16651
C_ C_ 0.947164 0.4319 0.505786 -0.16651
C_ C_ 0.492484 0.190142 0.95845 -0.12085
C_ C_ 0.493854 0.442264 0.957258 -0.12085
C_ C_ 0.740413 0.194009 0.957334 -0.12085
C_ C_ 0.748658 0.443065 0.959009 -0.12085
C_ C_ 0.681104 0.143962 0.935926 0.16698
C_ C_ 0.68702 0.390918 0.93624 0.16698
C_ C_ 0.93073 0.14343 0.931314 0.16698
C_ C_ 0.933702 0.388693 0.93197 0.16698
C_ C_ 0.681241 0.130402 0.867989 0.36401
C_ C_ 0.68758 0.378261 0.869207 0.36401
C_ C_ 0.934573 0.12753 0.864456 0.36401
C_ C_ 0.933122 0.374692 0.865787 0.36401
C_ C_ 0.717029 0.163438 0.926334 0.16698
C_ C_ 0.724752 0.412338 0.928632 0.16698
C_ C_ 0.967146 0.163661 0.924255 0.16698
C_ C_ 0.968803 0.411948 0.922073 0.16698
C_ C_ 0.739732 0.201562 0.498299 -0.12085
C_ C_ 0.734443 0.455057 0.497474 -0.12085
C_ C_ 0.99393 0.202824 0.501199 -0.12085
C_ C_ 0.985137 0.450867 0.497249 -0.12085
C_ C_ 0.668055 0.118197 0.821224 0.15351
C_ C_ 0.67614 0.362297 0.821013 0.15351
C_ C_ 0.922473 0.112123 0.816928 0.15351
C_ C_ 0.920358 0.35619 0.818698 0.15351
C_ C_ 0.659896 0.080769 0.805072 -0.35079
C_ C_ 0.672428 0.326044 0.806766 -0.35079
C_ C_ 0.913485 0.0742859 0.798515 -0.35079
C_ C_ 0.912506 0.318458 0.805276 -0.35079
N_ N_ 0.713592 0.116927 0.642613 -0.51457
N_ N_ 0.709115 0.36542 0.648782 -0.51457
N_ N_ 0.952071 0.113606 0.650362 -0.51457
N_ N_ 0.965338 0.365641 0.645318 -0.51457
N_ N_ 0.686562 0.152712 0.630706 -0.51457
N_ N_ 0.683331 0.400736 0.632661 -0.51457
N_ N_ 0.933736 0.151692 0.630118 -0.51457
N_ N_ 0.937629 0.39935 0.631144 -0.51457
N_ N_ 0.590014 0.132398 0.60552 -0.51457
N_ N_ 0.590161 0.386161 0.603237 -0.51457
N_ N_ 0.844428 0.132257 0.601664 -0.51457
N_ N_ 0.844085 0.384562 0.603844 -0.51457
N_ N_ 0.526197 0.0970144 0.618292 -0.51457
N_ N_ 0.530644 0.348664 0.618025 -0.51457
N_ N_ 0.782784 0.0952159 0.615607 -0.51457
N_ N_ 0.785111 0.347661 0.618081 -0.51457
N_ N_ 0.53891 0.13635 0.856155 -0.51457
N_ N_ 0.538056 0.381763 0.851825 -0.51457
N_ N_ 0.789999 0.134715 0.851388 -0.51457
N_ N_ 0.794713 0.385222 0.856584 -0.51457
N_ N_ 0.567077 0.101664 0.867829 -0.51457
N_ N_ 0.568505 0.348623 0.864536 -0.51457
N_ N_ 0.813824 0.0992754 0.868195 -0.51457
N_ N_ 0.817591 0.34974 0.871305 -0.51457
N_ N_ 0.657261 0.121262 0.897138 -0.51457
N_ N_ 0.663811 0.3691 0.899243 -0.51457
N_ N_ 0.908645 0.119741 0.892729 -0.51457
N_ N_ 0.909635 0.363611 0.896309 -0.51457
N_ N_ 0.71757 0.156891 0.884068 -0.51457
N_ N_ 0.724789 0.404985 0.885595 -0.51457
N_ N_ 0.970191 0.156333 0.882455 -0.51457
N_ N_ 0.968677 0.403668 0.880876 -0.51457
O_ O_ 0.518543 0.231639 0.827712 -0.61362
O_ O_ 0.522171 0.478324 0.831378 -0.61362
O_ O_ 0.77312 0.228897 0.820187 -0.61362
O_ O_ 0.769443 0.478859 0.826572 -0.61362
O_ O_ 0.553867 0.220313 0.885871 -0.98607
O_ O_ 0.562478 0.468277 0.88468 -0.98607
O_ O_ 0.800204 0.216232 0.882325 -0.98607
O_ O_ 0.812611 0.468538 0.878973 -0.98607
O_ O_ 0.523076 0.18212 0.818915 -0.61362
O_ O_ 0.525595 0.426921 0.81315 -0.61362
O_ O_ 0.770129 0.177031 0.811958 -0.61362
O_ O_ 0.769858 0.427224 0.813262 -0.61362
O_ O_ 0.687931 0.081471 0.553978 -0.55956
O_ O_ 0.684539 0.326338 0.556327 -0.55956
O_ O_ 0.924459 0.0747175 0.560426 -0.55956
O_ O_ 0.925876 0.319092 0.562308 -0.55956
O_ O_ 0.540369 0.0301741 0.920006 -0.61362
O_ O_ 0.54554 0.281482 0.924052 -0.61362
O_ O_ 0.792838 0.0277246 0.923207 -0.61362
O_ O_ 0.791014 0.276285 0.919208 -0.61362
O_ O_ 0.59555 0.0372927 0.871994 -0.98607
O_ O_ 0.594869 0.288662 0.871328 -0.98607
O_ O_ 0.844737 0.0389466 0.87592 -0.98607
O_ O_ 0.844254 0.285874 0.86822 -0.98607
O_ O_ 0.594172 0.0815602 0.938822 -0.61362
O_ O_ 0.591378 0.337986 0.938149 -0.61362
O_ O_ 0.846422 0.0789474 0.936506 -0.61362
O_ O_ 0.847464 0.325702 0.937377 -0.61362
O_ O_ 0.606133 0.127589 0.694509 -0.55956
O_ O_ 0.608891 0.394487 0.692057 -0.55956
O_ O_ 0.865076 0.1405 0.688647 -0.55956
O_ O_ 0.862289 0.394896 0.694697 -0.55956
O_ O_ 0.732833 0.0238939 0.673822 -0.61362
O_ O_ 0.736832 0.274697 0.678217 -0.61362
O_ O_ 0.974323 0.0202948 0.671265 -0.61362
O_ O_ 0.983551 0.272475 0.672225 -0.61362
O_ O_ 0.694988 0.0308443 0.610894 -0.98607
O_ O_ 0.699994 0.282781 0.619201 -0.98607
O_ O_ 0.939797 0.0312896 0.616528 -0.98607
O_ O_ 0.948082 0.284555 0.612203 -0.98607
O_ O_ 0.728407 0.0742021 0.684335 -0.61362
O_ O_ 0.737024 0.328235 0.691158 -0.61362
O_ O_ 0.980767 0.0742688 0.686319 -0.61362
O_ O_ 0.978531 0.323432 0.68851 -0.61362
O_ O_ 0.570368 0.177318 0.941556 -0.55956
O_ O_ 0.575165 0.426398 0.936641 -0.55956
O_ O_ 0.819652 0.17504 0.944244 -0.55956
O_ O_ 0.833018 0.430098 0.945048 -0.55956
O_ O_ 0.7183 0.22706 0.57789 -0.61362
O_ O_ 0.710955 0.472908 0.580197 -0.61362
O_ O_ 0.96707 0.222284 0.584354 -0.61362
O_ O_ 0.959986 0.471674 0.579906 -0.61362
O_ O_ 0.662903 0.215079 0.630197 -0.98607
O_ O_ 0.65371 0.46294 0.627464 -0.98607
O_ O_ 0.907368 0.215778 0.623977 -0.98607
O_ O_ 0.905455 0.462223 0.625308 -0.98607
O_ O_ 0.660703 0.176837 0.563943 -0.61362
O_ O_ 0.656179 0.423142 0.561842 -0.61362
O_ O_ 0.913363 0.169947 0.562388 -0.61362
O_ O_ 0.907893 0.418125 0.561952 -0.61362
O_ O_ 0.635504 0.118139 0.81013 -0.55956
O_ O_ 0.64302 0.359756 0.808708 -0.55956
O_ O_ 0.890514 0.11448 0.80745 -0.55956
O_ O_ 0.89038 0.359104 0.804943 -0.55956
Zn Zn 0.523141 0.671755 0.366572 0.91541
Zn Zn 0.526125 0.925522 0.366101 0.91541
Zn Zn 0.771194 0.671245 0.360537 0.91541
Zn Zn 0.77536 0.92406 0.365308 0.91541
Zn Zn 0.60224 0.578145 0.386962 0.91541
Zn Zn 0.606176 0.831834 0.388442 0.91541
Zn Zn 0.855685 0.582245 0.382242 0.91541
Zn Zn 0.857353 0.830304 0.384148 0.91541
Zn Zn 0.721918 0.575469 0.134979 0.91541
Zn Zn 0.727763 0.827998 0.141303 0.91541
Zn Zn 0.975763 0.575212 0.137308 0.91541
Zn Zn 0.973306 0.826018 0.135852 0.91541
Zn Zn 0.64433 0.67193 0.116743 0.91541
Zn Zn 0.645393 0.920361 0.118044 0.91541
Zn Zn 0.895824 0.667575 0.110377 0.91541
Zn Zn 0.897135 0.923466 0.115419 0.91541
Zn Zn 0.550175 0.500138 0.374551 1.11764
Zn Zn 0.552335 0.752191 0.37357 1.11764
Zn Zn 0.807444 0.502325 0.372853 1.11764
Zn Zn 0.803548 0.751315 0.373618 1.11764
Zn Zn 0.696741 1.00045 0.129158 1.11764
Zn Zn 0.697207 0.750189 0.126025 1.11764
Zn Zn 0.948597 1.000221108 0.12674 1.11764
Zn Zn 0.947801 0.747399 0.123774 1.11764
H_ H_ 0.751971 0.6381 0.2282 0.1146
H_ H_ 0.753313 0.893522 0.235472 0.1146
H_ H_ -0.0011360000000000259 0.639252 0.227885 0.1146
H_ H_ -0.0135915 0.884735 0.232185 0.1146
H_ H_ 0.691829 0.712332 0.200616 0.1146
H_ H_ 0.694962 0.962346 0.191736 0.1146
H_ H_ 0.950789 0.713376 0.186112 0.1146
H_ H_ 0.950959 0.963806 0.186839 0.1146
H_ H_ 0.727604 0.726442 0.272433 0.1146
H_ H_ 0.726264 0.979818 0.268946 0.1146
H_ H_ 0.983103 0.728378 0.258635 0.1146
H_ H_ 0.975402 0.978845 0.265939 0.1146
H_ H_ 0.68825 0.577331 0.0354654 0.42917
H_ H_ 0.681056 0.815725 0.0449936 0.42917
H_ H_ 0.91659 0.561304 0.0341835 0.42917
H_ H_ 0.941872 0.83005 0.0307565 0.42917
H_ H_ 0.644575 0.606057 0.0623682 0.1146
H_ H_ 0.647161 0.848002 0.0669469 0.1146
H_ H_ 0.892542 0.597149 0.0666113 0.1146
H_ H_ 0.899445 0.857209 0.0601893 0.1146
H_ H_ 0.627537 0.546567 0.0968532 0.1146
H_ H_ 0.600761 0.825135 0.114926 0.1146
H_ H_ 0.846429 0.577296 0.115405 0.1146
H_ H_ 0.857182 0.800204 0.0474202 0.1146
H_ H_ 0.601774 0.575385 0.108915 0.1146
H_ H_ 0.601325 0.788188 0.0726979 0.1146
H_ H_ 0.842988 0.542812 0.0687996 0.1146
H_ H_ 0.881872 0.795091 0.0890432 0.1146
H_ H_ 0.601687 0.548705 0.0525576 0.1146
H_ H_ 0.62798 0.80648 0.131959 0.1146
H_ H_ 0.87548 0.553952 0.121654 0.1146
H_ H_ 0.857727 0.822514 0.103281 0.1146
H_ H_ 0.575308 0.723304 0.398993 0.42917
H_ H_ 0.58023 0.976868 0.394972 0.42917
H_ H_ 0.821666 0.720832 0.400465 0.42917
H_ H_ 0.821915 0.973883 0.402214 0.42917
H_ H_ 0.601366 0.613061 0.0222302 0.1146
H_ H_ 0.612899 0.863842 0.0212223 0.1146
H_ H_ 0.84328 0.621454 0.0114522 0.1146
H_ H_ 0.858715 0.866744 0.0233323 0.1146
H_ H_ 0.725406 0.541332 0.0548222 0.1146
H_ H_ 0.726555 0.796823 0.0514448 0.1146
H_ H_ 0.98075 0.535177 0.0530182 0.1146
H_ H_ 0.974577 0.790666 0.0489421 0.1146
H_ H_ 0.750521 0.524416 0.480731 0.1146
H_ H_ 0.751963 0.774324 0.479622 0.1146
H_ H_ 0.99941012 0.514346 0.481344 0.1146
H_ H_ -0.00560566 0.771389 0.480035 0.1146
H_ H_ 0.621579 0.633129 0.185312 0.42917
H_ H_ 0.615915 0.890603 0.219927 0.42917
H_ H_ 0.878342 0.636701 0.198554 0.42917
H_ H_ 0.862497 0.855574 0.184689 0.42917
H_ H_ 0.55108 0.631683 0.200406 0.1146
H_ H_ 0.545785 0.879046 0.192384 0.1146
H_ H_ 0.798387 0.626783 0.194517 0.1146
H_ H_ 0.807275 0.875213 0.194694 0.1146
H_ H_ 0.611161 0.696613 0.186979 0.1146
H_ H_ 0.582293 0.939931 0.224634 0.1146
H_ H_ 0.817219 0.686292 0.193702 0.1146
H_ H_ 0.831417 0.932714 0.219811 0.1146
H_ H_ 0.55907 0.687383 0.194178 0.1146
H_ H_ 0.618625 0.943531 0.188566 0.1146
H_ H_ 0.840722 0.682061 0.236389 0.1146
H_ H_ 0.870548 0.923746 0.239074 0.1146
H_ H_ 0.594152 0.69188 0.231633 0.1146
H_ H_ 0.566207 0.932258 0.170246 0.1146
H_ H_ 0.866896 0.693058 0.196902 0.1146
H_ H_ 0.877405 0.941507 0.195415 0.1146
H_ H_ 0.612928 0.530022 0.355853 0.42917
H_ H_ 0.610891 0.781055 0.365702 0.42917
H_ H_ 0.868716 0.536689 0.35852 0.42917
H_ H_ 0.864695 0.780813 0.358827 0.42917
H_ H_ 0.492952 0.60784 0.276315 0.1146
H_ H_ 0.497512 0.863207 0.275322 0.1146
H_ H_ 0.747269 0.610564 0.270285 0.1146
H_ H_ 0.744352 0.860328 0.275968 0.1146
H_ H_ 0.542683 0.533712 0.313939 0.1146
H_ H_ 0.554384 0.789113 0.310353 0.1146
H_ H_ 0.80549 0.538563 0.306238 0.1146
H_ H_ 0.81031 0.79359 0.309118 0.1146
H_ H_ 0.512238 0.515592 0.237313 0.1146
H_ H_ 0.521119 0.772645 0.235868 0.1146
H_ H_ 0.772026 0.520504 0.229884 0.1146
H_ H_ 0.768211 0.771397 0.239593 0.1146
H_ H_ 0.551051 0.66128 0.467971 0.42917
H_ H_ 0.554624 0.917348 0.461311 0.42917
H_ H_ 0.813096 0.686133 0.459681 0.42917
H_ H_ 0.822094 0.930619 0.462836 0.42917
H_ H_ 0.596029 0.639576 0.441625 0.1146
H_ H_ 0.601198 0.897497 0.445448 0.1146
H_ H_ 0.847893 0.648745 0.438441 0.1146
H_ H_ 0.859545 0.903143 0.432989 0.1146
H_ H_ 0.651309 0.67978 0.407821 0.1146
H_ H_ 0.645264 0.950243 0.457021 0.1146
H_ H_ 0.891958 0.708628 0.440758 0.1146
H_ H_ 0.899905 0.92477 0.379996 0.1146
H_ H_ 0.635542 0.702798 0.450743 0.1146
H_ H_ 0.630404 0.961928 0.415694 0.1146
H_ H_ 0.869179 0.698059 0.3867 0.1146
H_ H_ 0.900696 0.961104 0.421825 0.1146
H_ H_ 0.614574 0.693508 0.396133 0.1146
H_ H_ 0.649062 0.933327 0.399164 0.1146
H_ H_ 0.9023 0.681922 0.398447 0.1146
H_ H_ 0.871459 0.943233 0.371766 0.1146
H_ H_ 0.664235 0.52162 0.103801 0.42917
H_ H_ 0.670244 0.782149 0.109393 0.42917
H_ H_ 0.923906 0.526396 0.0933713 0.42917
H_ H_ 0.923759 0.774739 0.0942413 0.42917
H_ H_ 0.644928 0.635897 0.486015 0.1146
H_ H_ 0.645899 0.884172 0.48052 0.1146
H_ H_ 0.887503 0.639676 0.473251 0.1146
H_ H_ 0.894118 0.893757 0.479227 0.1146
H_ H_ 0.525033 0.704231 0.449852 0.1146
H_ H_ 0.515512 0.967219 0.446977 0.1146
H_ H_ 0.765248 0.70918 0.443467 0.1146
H_ H_ 0.774366 0.959858 0.447784 0.1146
H_ H_ 0.49637 0.730186 0.0211456 0.1146
H_ H_ 0.499904 0.977244 0.020664 0.1146
H_ H_ 0.735046 0.733532 0.0106288 0.1146
H_ H_ 0.744641 0.980793 0.0204293 0.1146
H_ H_ 0.619997 0.624678 0.307695 0.42917
H_ H_ 0.62932 0.874394 0.316801 0.42917
H_ H_ 0.869781 0.615316 0.303859 0.42917
H_ H_ 0.876343 0.859364 0.292668 0.42917
H_ H_ 0.692859 0.627905 0.305657 0.1146
H_ H_ 0.705222 0.877706 0.306659 0.1146
H_ H_ 0.947321 0.630878 0.303716 0.1146
H_ H_ 0.951496 0.875578 0.310369 0.1146
H_ H_ 0.675459 0.569278 0.292541 0.1146
H_ H_ 0.668596 0.818836 0.270173 0.1146
H_ H_ 0.881374 0.561582 0.296248 0.1146
H_ H_ 0.917414 0.814256 0.270891 0.1146
H_ H_ 0.6383 0.570252 0.262154 0.1146
H_ H_ 0.63885 0.812461 0.310352 0.1146
H_ H_ 0.932718 0.569209 0.298304 0.1146
H_ H_ 0.88264 0.808983 0.305958 0.1146
H_ H_ 0.62808 0.562269 0.312056 0.1146
H_ H_ 0.690394 0.818002 0.316103 0.1146
H_ H_ 0.90742 0.576796 0.258529 0.1146
H_ H_ 0.936655 0.816063 0.31989 0.1146
H_ H_ 0.634281 0.718679 0.127241 0.42917
H_ H_ 0.634763 0.969726 0.139962 0.42917
H_ H_ 0.890873 0.717956 0.144256 0.42917
H_ H_ 0.886503 0.972733 0.133262 0.42917
C_ C_ 0.737326 0.653018 0.221493 -0.12085
C_ C_ 0.738951 0.907586 0.227406 -0.12085
C_ C_ 0.990834 0.655365 0.216981 -0.12085
C_ C_ 0.988151 0.90502 0.220898 -0.12085
C_ C_ 0.514559 0.697561 0.300658 0.6956
C_ C_ 0.515525 0.948516 0.297782 0.6956
C_ C_ 0.769349 0.698369 0.297221 0.6956
C_ C_ 0.762469 0.95105 0.300644 0.6956
C_ C_ 0.744814 0.68568 0.253875 -0.16651
C_ C_ 0.743549 0.939987 0.257048 -0.16651
C_ C_ 0.999252 0.688013 0.246937 -0.16651
C_ C_ 0.993567 0.936416 0.25435 -0.16651
C_ C_ 0.700966 0.694436 0.207547 -0.12085
C_ C_ 0.707107 0.947542 0.202601 -0.12085
C_ C_ 0.963608 0.698061 0.193544 -0.12085
C_ C_ 0.958154 0.946572 0.200776 -0.12085
C_ C_ 0.711901 0.642362 0.183784 0.16698
C_ C_ 0.717147 0.895728 0.187373 0.16698
C_ C_ 0.974859 0.646086 0.175239 0.16698
C_ C_ 0.970189 0.896532 0.178052 0.16698
C_ C_ 0.68039 0.620421 0.120688 0.36401
C_ C_ 0.684077 0.868906 0.124786 0.36401
C_ C_ 0.931293 0.616138 0.118823 0.36401
C_ C_ 0.934903 0.871177 0.119231 0.36401
C_ C_ 0.696533 0.664193 0.176641 0.16698
C_ C_ 0.69909 0.91401 0.178097 0.16698
C_ C_ 0.959699 0.665992 0.164029 0.16698
C_ C_ 0.953017 0.916117 0.172175 0.16698
C_ C_ 0.724971 0.704382 0.2464 -0.12085
C_ C_ 0.72718 0.95908 0.24516 -0.12085
C_ C_ 0.986701 0.709375 0.234327 -0.12085
C_ C_ 0.977817 0.958469 0.242785 -0.12085
C_ C_ 0.656942 0.593889 0.0811743 0.15351
C_ C_ 0.656322 0.837627 0.0905306 0.15351
C_ C_ 0.90153 0.586038 0.0867423 0.15351
C_ C_ 0.911386 0.844709 0.0772541 0.15351
C_ C_ 0.618476 0.563437 0.0855689 -0.35079
C_ C_ 0.621098 0.813279 0.102828 -0.35079
C_ C_ 0.863366 0.563109 0.0976542 -0.35079
C_ C_ 0.874541 0.813358 0.0798041 -0.35079
C_ C_ 0.571315 0.600707 0.026525 -0.12085
C_ C_ 0.583221 0.850577 0.0272709 -0.12085
C_ C_ 0.822335 0.599979 0.0216109 -0.12085
C_ C_ 0.827723 0.855274 0.028194 -0.12085
C_ C_ 0.568553 0.555592 0.452792 0.6956
C_ C_ 0.560669 0.803611 0.448167 0.6956
C_ C_ 0.820239 0.554503 0.448112 0.6956
C_ C_ 0.816389 0.806955 0.448369 0.6956
C_ C_ 0.55627 0.567365 0.496325 -0.16651
C_ C_ 0.550379 0.813573 0.492757 -0.16651
C_ C_ 0.811947 0.567266 0.492231 -0.16651
C_ C_ 0.805164 0.817613 0.492366 -0.16651
C_ C_ 0.751363 0.555931 0.0428146 -0.12085
C_ C_ 0.754315 0.812321 0.0465988 -0.12085
C_ C_ 0.00804135 0.553908 0.0449441 -0.12085
C_ C_ 0.00168636 0.806881 0.0404203 -0.12085
C_ C_ 0.560223 0.611667 0.0668081 0.16698
C_ C_ 0.56875 0.858482 0.0666208 0.16698
C_ C_ 0.814493 0.606823 0.0636707 0.16698
C_ C_ 0.815549 0.8643 0.0671669 0.16698
C_ C_ 0.562194 0.627772 0.135378 0.36401
C_ C_ 0.563775 0.872343 0.132258 0.36401
C_ C_ 0.812677 0.623409 0.131257 0.36401
C_ C_ 0.81603 0.875671 0.134417 0.36401
C_ C_ 0.525972 0.588245 0.0776196 0.16698
C_ C_ 0.531946 0.837255 0.0723166 0.16698
C_ C_ 0.777661 0.587991 0.0716324 0.16698
C_ C_ 0.778443 0.843077 0.0758533 0.16698
C_ C_ 0.517832 0.545374 0.506579 -0.12085
C_ C_ 0.512711 0.794729 0.503739 -0.12085
C_ C_ 0.773136 0.548005 0.502873 -0.12085
C_ C_ 0.770122 0.797146 0.503545 -0.12085
C_ C_ 0.574394 0.642427 0.182434 0.15351
C_ C_ 0.573678 0.890243 0.179546 0.15351
C_ C_ 0.824861 0.638193 0.179985 0.15351
C_ C_ 0.833842 0.884943 0.179805 0.15351
C_ C_ 0.583249 0.68119 0.198019 -0.35079
C_ C_ 0.585331 0.928015 0.191106 -0.35079
C_ C_ 0.838936 0.676733 0.20118 -0.35079
C_ C_ 0.854886 0.923147 0.208342 -0.35079
C_ C_ 0.50345 0.591244 0.281376 -0.12085
C_ C_ 0.510464 0.847007 0.282994 -0.12085
C_ C_ 0.757214 0.592562 0.277536 -0.12085
C_ C_ 0.761853 0.846528 0.280294 -0.12085
C_ C_ 0.732262 0.550915 0.202138 0.6956
C_ C_ 0.738508 0.804118 0.203294 0.6956
C_ C_ 0.981248 0.549794 0.202893 0.6956
C_ C_ 0.987499 0.802059 0.200808 0.6956
C_ C_ 0.499557 0.560532 0.249166 -0.16651
C_ C_ 0.5056 0.814582 0.248894 -0.16651
C_ C_ 0.751616 0.560754 0.246161 -0.16651
C_ C_ 0.756692 0.815685 0.248668 -0.16651
C_ C_ 0.531576 0.547996 0.300538 -0.12085
C_ C_ 0.546992 0.806236 0.299888 -0.12085
C_ C_ 0.792776 0.554063 0.297099 -0.12085
C_ C_ 0.794631 0.807136 0.301819 -0.12085
C_ C_ 0.524816 0.601248 0.32166 0.16698
C_ C_ 0.534073 0.857042 0.323428 0.16698
C_ C_ 0.774236 0.600866 0.319973 0.16698
C_ C_ 0.781387 0.85614 0.322148 0.16698
C_ C_ 0.564249 0.626108 0.379087 0.36401
C_ C_ 0.568665 0.881049 0.38358 0.36401
C_ C_ 0.815929 0.630918 0.375522 0.36401
C_ C_ 0.820443 0.883142 0.380086 0.36401
C_ C_ 0.53818 0.579843 0.331114 0.16698
C_ C_ 0.550324 0.836162 0.33055 0.16698
C_ C_ 0.792387 0.581744 0.329084 0.16698
C_ C_ 0.797712 0.835886 0.331785 0.16698
C_ C_ 0.512776 0.539287 0.261222 -0.12085
C_ C_ 0.521573 0.793511 0.260042 -0.12085
C_ C_ 0.773771 0.544303 0.255629 -0.12085
C_ C_ 0.772875 0.79593 0.260843 -0.12085
C_ C_ 0.587107 0.65183 0.422116 0.15351
C_ C_ 0.590799 0.908705 0.424169 0.15351
C_ C_ 0.839457 0.659618 0.416304 0.15351
C_ C_ 0.848262 0.913655 0.415128 0.15351
C_ C_ 0.623813 0.68297 0.417629 -0.35079
C_ C_ 0.6299 0.939341 0.423883 -0.35079
C_ C_ 0.877823 0.687854 0.410875 -0.35079
C_ C_ 0.882735 0.937711 0.397634 -0.35079
C_ C_ 0.674258 0.650171 0.478613 -0.12085
C_ C_ 0.672347 0.902 0.475102 -0.12085
C_ C_ 0.920407 0.650163 0.472881 -0.12085
C_ C_ 0.923783 0.903927 0.476327 -0.12085
C_ C_ 0.678213 0.694749 0.0493871 0.6956
C_ C_ 0.679519 0.947512 0.052763 0.6956
C_ C_ 0.93813 0.693513 0.0511245 0.6956
C_ C_ 0.939434 0.947854 0.0527271 0.6956
C_ C_ 0.687431 0.683099 0.00451255 -0.16651
C_ C_ 0.688932 0.936614 0.00704088 -0.16651
C_ C_ 0.949916 0.683394 0.00858497 -0.16651
C_ C_ 0.948791 0.937934 0.00810171 -0.16651
C_ C_ 0.495982 0.690145 0.456019 -0.12085
C_ C_ 0.497824 0.947178 0.457836 -0.12085
C_ C_ 0.745804 0.690007 0.455759 -0.12085
C_ C_ 0.746331 0.942914 0.455868 -0.12085
C_ C_ 0.685573 0.637428 0.437128 0.16698
C_ C_ 0.685372 0.892029 0.437214 0.16698
C_ C_ 0.93473 0.641198 0.433337 0.16698
C_ C_ 0.934999 0.892458 0.435842 0.16698
C_ C_ 0.682572 0.624379 0.368274 0.36401
C_ C_ 0.688478 0.876579 0.36898 0.36401
C_ C_ 0.937999 0.629162 0.366467 0.36401
C_ C_ 0.93969 0.87439 0.370557 0.36401
C_ C_ 0.722063 0.65852 0.427494 0.16698
C_ C_ 0.721108 0.912557 0.42744 0.16698
C_ C_ 0.972806 0.662488 0.42649 0.16698
C_ C_ 0.971444 0.914843 0.427173 0.16698
C_ C_ 0.722094 0.707109 0.992435 -0.12085
C_ C_ 0.725614 0.958053 0.996955 -0.12085
C_ C_ 0.98428 0.70755 0.997018 -0.12085
C_ C_ 0.984664 0.959069 0.996292 -0.12085
C_ C_ 0.665866 0.614331 0.320674 0.15351
C_ C_ 0.67757 0.863111 0.321152 0.15351
C_ C_ 0.922532 0.615287 0.318281 0.15351
C_ C_ 0.925155 0.859521 0.323289 0.15351
C_ C_ 0.650298 0.578016 0.295835 -0.35079
C_ C_ 0.668803 0.826263 0.304418 -0.35079
C_ C_ 0.911966 0.578774 0.292084 -0.35079
C_ C_ 0.915706 0.822314 0.304807 -0.35079
N_ N_ 0.704571 0.61502 0.148165 -0.51457
N_ N_ 0.708319 0.866468 0.154679 -0.51457
N_ N_ 0.956653 0.613614 0.146695 -0.51457
N_ N_ 0.959195 0.866952 0.146353 -0.51457
N_ N_ 0.676539 0.65103 0.137327 -0.51457
N_ N_ 0.676297 0.897341 0.139098 -0.51457
N_ N_ 0.930312 0.647912 0.130496 -0.51457
N_ N_ 0.932576 0.902764 0.133904 -0.51457
N_ N_ 0.584958 0.637388 0.104992 -0.51457
N_ N_ 0.589869 0.880963 0.104391 -0.51457
N_ N_ 0.837231 0.631475 0.0998199 -0.51457
N_ N_ 0.838736 0.886558 0.104249 -0.51457
N_ N_ 0.526697 0.597671 0.118689 -0.51457
N_ N_ 0.527768 0.845548 0.113712 -0.51457
N_ N_ 0.775666 0.596692 0.113785 -0.51457
N_ N_ 0.778593 0.850234 0.118173 -0.51457
N_ N_ 0.540403 0.631707 0.35377 -0.51457
N_ N_ 0.543785 0.885936 0.356409 -0.51457
N_ N_ 0.79015 0.633252 0.349244 -0.51457
N_ N_ 0.793771 0.886525 0.354104 -0.51457
N_ N_ 0.564983 0.594494 0.365512 -0.51457
N_ N_ 0.572894 0.851346 0.368858 -0.51457
N_ N_ 0.820058 0.600609 0.363015 -0.51457
N_ N_ 0.821916 0.85206 0.369435 -0.51457
N_ N_ 0.660038 0.615304 0.399815 -0.51457
N_ N_ 0.662491 0.867949 0.399706 -0.51457
N_ N_ 0.912044 0.619005 0.394377 -0.51457
N_ N_ 0.913183 0.866544 0.399537 -0.51457
N_ N_ 0.721983 0.649556 0.384431 -0.51457
N_ N_ 0.724064 0.904503 0.386436 -0.51457
N_ N_ 0.973436 0.657188 0.385086 -0.51457
N_ N_ 0.976111 0.903099 0.385783 -0.51457
O_ O_ 0.522 0.728315 0.324288 -0.61362
O_ O_ 0.5253 0.979799 0.322016 -0.61362
O_ O_ 0.773389 0.727908 0.324131 -0.61362
O_ O_ 0.77306 0.982512 0.324387 -0.61362
O_ O_ 0.554147 0.717207 0.382148 -0.98607
O_ O_ 0.55744 0.970571 0.382641 -0.98607
O_ O_ 0.802917 0.715183 0.380415 -0.98607
O_ O_ 0.804604 0.967926 0.381963 -0.98607
O_ O_ 0.523179 0.676264 0.31456 -0.61362
O_ O_ 0.519453 0.925319 0.311181 -0.61362
O_ O_ 0.777706 0.676467 0.310171 -0.61362
O_ O_ 0.772766 0.929919 0.312449 -0.61362
O_ O_ 0.677907 0.580586 0.0580093 -0.55956
O_ O_ 0.673785 0.820442 0.069442 -0.55956
O_ O_ 0.915625 0.56814 0.0604049 -0.55956
O_ O_ 0.933014 0.832723 0.0545532 -0.55956
O_ O_ 0.545646 0.52311 0.427926 -0.61362
O_ O_ 0.535905 0.774058 0.418967 -0.61362
O_ O_ 0.795126 0.524792 0.421537 -0.61362
O_ O_ 0.793906 0.777622 0.420683 -0.61362
O_ O_ 0.593847 0.534102 0.365663 -0.98607
O_ O_ 0.592796 0.786901 0.375003 -0.98607
O_ O_ 0.848469 0.538616 0.368604 -0.98607
O_ O_ 0.845359 0.785613 0.367275 -0.98607
O_ O_ 0.594954 0.578505 0.439362 -0.61362
O_ O_ 0.593748 0.826937 0.439535 -0.61362
O_ O_ 0.847075 0.578722 0.435366 -0.61362
O_ O_ 0.846308 0.830649 0.43817 -0.61362
O_ O_ 0.603636 0.638273 0.195214 -0.55956
O_ O_ 0.602854 0.889846 0.197666 -0.55956
O_ O_ 0.853477 0.631352 0.18937 -0.55956
O_ O_ 0.857941 0.872943 0.18566 -0.55956
O_ O_ 0.727768 0.522088 0.174196 -0.61362
O_ O_ 0.728305 0.77178 0.178154 -0.61362
O_ O_ 0.975872 0.519279 0.177057 -0.61362
O_ O_ 0.981845 0.771985 0.173263 -0.61362
O_ O_ 0.687835 0.530712 0.117644 -0.98607
O_ O_ 0.693192 0.784341 0.119807 -0.98607
O_ O_ 0.942067 0.529995 0.11261 -0.98607
O_ O_ 0.94433 0.781863 0.113278 -0.98607
O_ O_ 0.729784 0.575311 0.188911 -0.61362
O_ O_ 0.729117 0.825303 0.19122 -0.61362
O_ O_ 0.978768 0.572989 0.18956 -0.61362
O_ O_ 0.9828 0.824953 0.187436 -0.61362
O_ O_ 0.56361 0.661681 0.445105 -0.55956
O_ O_ 0.568047 0.919855 0.441705 -0.55956
O_ O_ 0.818359 0.675005 0.434435 -0.55956
O_ O_ 0.83053 0.928173 0.437748 -0.55956
O_ O_ 0.700293 0.726026 0.0742066 -0.61362
O_ O_ 0.70407 0.976788 0.0783231 -0.61362
O_ O_ 0.961551 0.724232 0.0790574 -0.61362
O_ O_ 0.961177 0.976712 0.0808102 -0.61362
O_ O_ 0.654724 0.71469 0.124006 -0.98607
O_ O_ 0.653086 0.964514 0.131976 -0.98607
O_ O_ 0.908519 0.713248 0.131615 -0.98607
O_ O_ 0.904598 0.966128 0.127283 -0.98607
O_ O_ 0.657556 0.670604 0.0662305 -0.61362
O_ O_ 0.653586 0.924178 0.0670209 -0.61362
O_ O_ 0.902933 0.675076 0.0599463 -0.61362
O_ O_ 0.912132 0.924711 0.0651004 -0.61362
O_ O_ 0.640721 0.626409 0.318564 -0.55956
O_ O_ 0.647248 0.866911 0.31 -0.55956
O_ O_ 0.894507 0.622486 0.312047 -0.55956
O_ O_ 0.895787 0.865065 0.312228 -0.55956
Zn Zn 0.521923 0.670594 0.860655 0.91541
Zn Zn 0.520812 0.925063 0.865999 0.91541
Zn Zn 0.770731 0.673874 0.865941 0.91541
Zn Zn 0.77159 0.923679 0.866017 0.91541
Zn Zn 0.59951 0.578013 0.88753 0.91541
Zn Zn 0.602348 0.832259 0.884386 0.91541
Zn Zn 0.851131 0.580082 0.887594 0.91541
Zn Zn 0.853833 0.833683 0.890417 0.91541
Zn Zn 0.727903 0.578145 0.635163 0.91541
Zn Zn 0.726845 0.827347 0.637801 0.91541
Zn Zn 0.981169 0.576687 0.638086 0.91541
Zn Zn 0.975502 0.827004 0.635556 0.91541
Zn Zn 0.648836 0.669613 0.618824 0.91541
Zn Zn 0.645574 0.918402 0.611922 0.91541
Zn Zn 0.898093 0.671247 0.614027 0.91541
Zn Zn 0.89369 0.920643 0.612939 0.91541
Zn Zn 0.553094 0.500248 0.879302 1.11764
Zn Zn 0.550685 0.749693 0.87405 1.11764
Zn Zn 0.804518 0.50212 0.876142 1.11764
Zn Zn 0.801357 0.755577 0.880443 1.11764
Zn Zn 0.699889 -0.0006549999999999612 0.625342 1.11764
Zn Zn 0.699649 0.747362 0.627269 1.11764
Zn Zn 0.941857 0.996241 0.622073 1.11764
Zn Zn 0.950086 0.748708 0.625744 1.11764
H_ H_ 0.760499 0.644966 0.725659 0.1146
H_ H_ 0.74415 0.88816 0.732599 0.1146
H_ H_ 0.000564106 0.634976 0.724676 0.1146
H_ H_ 0.00533882 0.890449 0.72302 0.1146
H_ H_ 0.684964 0.707923 0.699737 0.1146
H_ H_ 0.704086 0.966591 0.690879 0.1146
H_ H_ 0.941008 0.704686 0.695639 0.1146
H_ H_ 0.932688 0.955234 0.700362 0.1146
H_ H_ 0.719924 0.725292 0.771178 0.1146
H_ H_ 0.737829 0.985647 0.760492 0.1146
H_ H_ 0.979491 0.725796 0.764656 0.1146
H_ H_ 0.97278 0.975368 0.768799 0.1146
H_ H_ 0.679631 0.561702 0.541386 0.42917
H_ H_ 0.702833 0.826486 0.5401 0.42917
H_ H_ 0.962967 0.591929 0.540687 0.42917
H_ H_ 0.948892 0.827686 0.549259 0.42917
H_ H_ 0.650391 0.60375 0.563114 0.1146
H_ H_ 0.666302 0.861275 0.550698 0.1146
H_ H_ 0.906467 0.606033 0.556268 0.1146
H_ H_ 0.899648 0.85536 0.559366 0.1146
H_ H_ 0.601324 0.573128 0.606818 0.1146
H_ H_ 0.609225 0.806088 0.541944 0.1146
H_ H_ 0.887228 0.552247 0.597003 0.1146
H_ H_ 0.84681 0.821537 0.599192 0.1146
H_ H_ 0.605608 0.542267 0.559161 0.1146
H_ H_ 0.630465 0.801315 0.589881 0.1146
H_ H_ 0.857239 0.570491 0.581818 0.1146
H_ H_ 0.85839 0.790315 0.55668 0.1146
H_ H_ 0.629966 0.549589 0.615489 0.1146
H_ H_ 0.607653 0.828346 0.598946 0.1146
H_ H_ 0.866704 0.541452 0.543903 0.1146
H_ H_ 0.877338 0.802133 0.610931 0.1146
H_ H_ 0.57024 0.723092 0.904106 0.42917
H_ H_ 0.581484 0.972838 0.891853 0.42917
H_ H_ 0.819521 0.723167 0.904456 0.42917
H_ H_ 0.82037 0.97298 0.90747 0.42917
H_ H_ 0.610243 0.612431 0.526193 0.1146
H_ H_ 0.603447 0.861681 0.514146 0.1146
H_ H_ 0.864539 0.613279 0.518998 0.1146
H_ H_ 0.850349 0.867781 0.512957 0.1146
H_ H_ 0.731776 0.540639 0.548944 0.1146
H_ H_ 0.734834 0.787913 0.553051 0.1146
H_ H_ 0.979888 0.53391 0.552015 0.1146
H_ H_ 0.981474 0.786155 0.552699 0.1146
H_ H_ 0.747072 0.517365 0.980308 0.1146
H_ H_ 0.746993 0.777988 0.98223 0.1146
H_ H_ -0.00518799999999997 0.523471 0.978512 0.1146
H_ H_ 0.992639 0.771618 0.97603 0.1146
H_ H_ 0.615452 0.614405 0.678778 0.42917
H_ H_ 0.611284 0.861525 0.679846 0.42917
H_ H_ 0.872457 0.631601 0.70546 0.42917
H_ H_ 0.866881 0.90938 0.718277 0.42917
H_ H_ 0.551793 0.62514 0.699201 0.1146
H_ H_ 0.550602 0.872801 0.691484 0.1146
H_ H_ 0.804811 0.629196 0.695151 0.1146
H_ H_ 0.795736 0.883347 0.693951 0.1146
H_ H_ 0.618527 0.690989 0.693492 0.1146
H_ H_ 0.570736 0.937144 0.698055 0.1146
H_ H_ 0.825283 0.689592 0.669855 0.1146
H_ H_ 0.84806 0.951752 0.678869 0.1146
H_ H_ 0.570143 0.685188 0.698055 0.1146
H_ H_ 0.60362 0.931967 0.734654 0.1146
H_ H_ 0.830591 0.691436 0.723204 0.1146
H_ H_ 0.792086 0.930031 0.664641 0.1146
H_ H_ 0.598244 0.680946 0.738849 0.1146
H_ H_ 0.620173 0.939052 0.688847 0.1146
H_ H_ 0.872352 0.69362 0.700603 0.1146
H_ H_ 0.818976 0.943017 0.722179 0.1146
H_ H_ 0.61225 0.533139 0.882989 0.42917
H_ H_ 0.610265 0.781818 0.864044 0.42917
H_ H_ 0.858871 0.532223 0.854814 0.42917
H_ H_ 0.860103 0.784044 0.861344 0.42917
H_ H_ 0.493989 0.607151 0.77137 0.1146
H_ H_ 0.497184 0.859798 0.768219 0.1146
H_ H_ 0.747316 0.611787 0.76766 0.1146
H_ H_ 0.769998 0.868524 0.767528 0.1146
H_ H_ 0.554914 0.537325 0.813214 0.1146
H_ H_ 0.560106 0.794139 0.806484 0.1146
H_ H_ 0.795815 0.536502 0.809168 0.1146
H_ H_ 0.805506 0.789536 0.811768 0.1146
H_ H_ 0.524374 0.518895 0.739705 0.1146
H_ H_ 0.524458 0.772483 0.738321 0.1146
H_ H_ 0.773593 0.524622 0.73688 0.1146
H_ H_ 0.775903 0.773042 0.737099 0.1146
H_ H_ 0.566201 0.683334 0.967409 0.42917
H_ H_ 0.557392 0.936939 0.954836 0.42917
H_ H_ 0.789488 0.659845 0.956355 0.42917
H_ H_ 0.811031 0.933072 0.967089 0.42917
H_ H_ 0.603228 0.649145 0.937722 0.1146
H_ H_ 0.596963 0.902475 0.938295 0.1146
H_ H_ 0.840182 0.641206 0.945549 0.1146
H_ H_ 0.84361 0.897014 0.947041 0.1146
H_ H_ 0.645351 0.70611 0.939344 0.1146
H_ H_ 0.645187 0.957544 0.928674 0.1146
H_ H_ 0.865094 0.706064 0.921985 0.1146
H_ H_ 0.887843 0.956628 0.946311 0.1146
H_ H_ 0.616976 0.698667 0.888668 0.1146
H_ H_ 0.622602 0.944518 0.875624 0.1146
H_ H_ 0.885754 0.681445 0.896457 0.1146
H_ H_ 0.866614 0.946641 0.892932 0.1146
H_ H_ 0.648363 0.677973 0.893616 0.1146
H_ H_ 0.641896 0.919297 0.886921 0.1146
H_ H_ 0.889066 0.694687 0.955998 0.1146
H_ H_ 0.895477 0.92735 0.903356 0.1146
H_ H_ 0.677024 0.526749 0.595742 0.42917
H_ H_ 0.67932 0.777208 0.598115 0.42917
H_ H_ 0.930869 0.52738 0.600475 0.42917
H_ H_ 0.921141 0.777626 0.606453 0.42917
H_ H_ 0.642293 0.630125 0.980455 0.1146
H_ H_ 0.63193 0.890562 0.976413 0.1146
H_ H_ 0.900304 0.632225 0.987013 0.1146
H_ H_ 0.895744 0.891741 0.983185 0.1146
H_ H_ 0.517473 0.710885 0.946809 0.1146
H_ H_ 0.510383 0.964643 0.945479 0.1146
H_ H_ 0.756456 0.71265 0.939946 0.1146
H_ H_ 0.75712 0.969504 0.947384 0.1146
H_ H_ 0.503431 0.725556 0.520126 0.1146
H_ H_ 0.507952 0.979065 0.525432 0.1146
H_ H_ 0.757832 0.726834 0.517394 0.1146
H_ H_ 0.753365 0.977167 0.519951 0.1146
H_ H_ 0.621479 0.612932 0.794473 0.42917
H_ H_ 0.635305 0.876321 0.797829 0.42917
H_ H_ 0.880257 0.629039 0.81552 0.42917
H_ H_ 0.877525 0.869311 0.816273 0.42917
H_ H_ 0.694214 0.621772 0.806112 0.1146
H_ H_ 0.698579 0.872023 0.806829 0.1146
H_ H_ 0.946001 0.624812 0.807962 0.1146
H_ H_ 0.948698 0.870809 0.806673 0.1146
H_ H_ 0.682791 0.567619 0.8025 0.1146
H_ H_ 0.637679 0.805664 0.820144 0.1146
H_ H_ 0.930571 0.565792 0.820218 0.1146
H_ H_ 0.925605 0.815391 0.842401 0.1146
H_ H_ 0.645835 0.563166 0.762881 0.1146
H_ H_ 0.685958 0.814479 0.811365 0.1146
H_ H_ 0.915885 0.565878 0.768814 0.1146
H_ H_ 0.93115 0.807462 0.78494 0.1146
H_ H_ 0.63236 0.554849 0.812855 0.1146
H_ H_ 0.657241 0.81094 0.770851 0.1146
H_ H_ 0.877144 0.555621 0.79869 0.1146
H_ H_ 0.886332 0.803151 0.804753 0.1146
H_ H_ 0.637387 0.720862 0.632619 0.42917
H_ H_ 0.644183 0.97122 0.644028 0.42917
H_ H_ 0.890726 0.720823 0.636441 0.42917
H_ H_ 0.876918 0.965506 0.620062 0.42917
C_ C_ 0.738816 0.655585 0.724015 -0.12085
C_ C_ 0.734699 0.904315 0.725018 -0.12085
C_ C_ 0.9877 0.649627 0.721332 -0.12085
C_ C_ 0.99062 0.905204 0.719898 -0.12085
C_ C_ 0.509454 0.694126 0.799229 0.6956
C_ C_ 0.512038 0.950493 0.800532 0.6956
C_ C_ 0.761943 0.697862 0.802696 0.6956
C_ C_ 0.758776 0.948185 0.7993 0.6956
C_ C_ 0.741191 0.686161 0.757009 -0.16651
C_ C_ 0.741735 0.937111 0.754144 -0.16651
C_ C_ 0.989892 0.679859 0.75497 -0.16651
C_ C_ 0.991875 0.933667 0.752327 -0.16651
C_ C_ 0.702892 0.695132 0.704788 -0.12085
C_ C_ 0.709375 0.948566 0.699957 -0.12085
C_ C_ 0.952978 0.689657 0.703257 -0.12085
C_ C_ 0.950919 0.944138 0.70364 -0.12085
C_ C_ 0.720132 0.646304 0.681484 0.16698
C_ C_ 0.715574 0.894531 0.683545 0.16698
C_ C_ 0.962979 0.638975 0.680915 0.16698
C_ C_ 0.965908 0.89477 0.681418 0.16698
C_ C_ 0.68346 0.61946 0.624843 0.36401
C_ C_ 0.686695 0.871811 0.617048 0.36401
C_ C_ 0.933379 0.617651 0.619221 0.36401
C_ C_ 0.930853 0.869017 0.620673 0.36401
C_ C_ 0.704084 0.666844 0.673357 0.16698
C_ C_ 0.702001 0.916194 0.672085 0.16698
C_ C_ 0.944334 0.658165 0.674521 0.16698
C_ C_ 0.948792 0.915306 0.672959 0.16698
C_ C_ 0.721063 0.704238 0.74604 -0.12085
C_ C_ 0.731723 0.959953 0.739818 -0.12085
C_ C_ 0.973107 0.700549 0.744061 -0.12085
C_ C_ 0.973195 0.953885 0.743374 -0.12085
C_ C_ 0.65818 0.590643 0.584405 0.15351
C_ C_ 0.666632 0.847039 0.57393 0.15351
C_ C_ 0.917163 0.592875 0.574032 0.15351
C_ C_ 0.907148 0.840455 0.57949 0.15351
C_ C_ 0.62145 0.561199 0.591334 -0.35079
C_ C_ 0.625577 0.81882 0.575596 -0.35079
C_ C_ 0.880887 0.562616 0.573596 -0.35079
C_ C_ 0.869059 0.81235 0.586818 -0.35079
C_ C_ 0.580645 0.597018 0.529213 -0.12085
C_ C_ 0.575633 0.846003 0.523224 -0.12085
C_ C_ 0.834984 0.598883 0.524426 -0.12085
C_ C_ 0.83091 0.84941 0.525028 -0.12085
C_ C_ 0.558908 0.553911 0.952471 0.6956
C_ C_ 0.567773 0.808589 0.949259 0.6956
C_ C_ 0.810773 0.55578 0.948238 0.6956
C_ C_ 0.810515 0.812063 0.949743 0.6956
C_ C_ 0.548082 0.567639 0.996042 -0.16651
C_ C_ 0.558799 0.818502 0.993295 -0.16651
C_ C_ 0.799423 0.56602 0.992468 -0.16651
C_ C_ 0.801516 0.824454 0.994221 -0.16651
C_ C_ 0.760232 0.557954 0.542592 -0.12085
C_ C_ 0.75932 0.8057 0.544215 -0.12085
C_ C_ 1.0073163 0.551006 0.543248 -0.12085
C_ C_ 0.00282747 0.805789 0.541733 -0.12085
C_ C_ 0.567589 0.607712 0.56841 0.16698
C_ C_ 0.562442 0.858021 0.563277 0.16698
C_ C_ 0.820141 0.609227 0.56484 0.16698
C_ C_ 0.818988 0.857422 0.565811 0.16698
C_ C_ 0.565109 0.624661 0.635792 0.36401
C_ C_ 0.561102 0.876451 0.629433 0.36401
C_ C_ 0.815814 0.627248 0.632122 0.36401
C_ C_ 0.812617 0.876464 0.631577 0.36401
C_ C_ 0.530841 0.586875 0.575696 0.16698
C_ C_ 0.5262 0.838687 0.570926 0.16698
C_ C_ 0.783532 0.589272 0.57253 0.16698
C_ C_ 0.783138 0.836009 0.57351 0.16698
C_ C_ 0.513861 0.543556 0.0086755 -0.12085
C_ C_ 0.521312 0.796948 1.00183447 -0.12085
C_ C_ 0.762883 0.543811 0.00261702 -0.12085
C_ C_ 0.764651 0.803371 0.00505641 -0.12085
C_ C_ 0.577791 0.636609 0.68235 0.15351
C_ C_ 0.576217 0.886991 0.677289 0.15351
C_ C_ 0.829589 0.642955 0.679594 0.15351
C_ C_ 0.819191 0.898016 0.677768 0.15351
C_ C_ 0.590478 0.674466 0.70456 -0.35079
C_ C_ 0.592229 0.925987 0.700554 -0.35079
C_ C_ 0.840499 0.681623 0.693871 -0.35079
C_ C_ 0.820295 0.933642 0.6862 -0.35079
C_ C_ 0.505559 0.591207 0.780865 -0.12085
C_ C_ 0.507909 0.844192 0.775865 -0.12085
C_ C_ 0.760746 0.597374 0.778146 -0.12085
C_ C_ 0.770553 0.849223 0.77676 -0.12085
C_ C_ 0.74105 0.557029 0.701723 0.6956
C_ C_ 0.745109 0.804617 0.700907 0.6956
C_ C_ 0.989578 0.553445 0.70156 0.6956
C_ C_ 0.990646 0.804482 0.701813 0.6956
C_ C_ 0.504589 0.560911 0.749053 -0.16651
C_ C_ 0.506721 0.814038 0.743667 -0.16651
C_ C_ 0.756687 0.565734 0.746459 -0.16651
C_ C_ 0.764079 0.817167 0.746384 -0.16651
C_ C_ 0.542097 0.553514 0.803517 -0.12085
C_ C_ 0.547536 0.808695 0.798563 -0.12085
C_ C_ 0.792832 0.556216 0.799812 -0.12085
C_ C_ 0.797083 0.806869 0.801364 -0.12085
C_ C_ 0.527115 0.603016 0.821431 0.16698
C_ C_ 0.525363 0.853623 0.818712 0.16698
C_ C_ 0.778308 0.606075 0.820482 0.16698
C_ C_ 0.781389 0.854717 0.819778 0.16698
C_ C_ 0.563681 0.629871 0.881145 0.36401
C_ C_ 0.561725 0.880746 0.877873 0.36401
C_ C_ 0.815016 0.631818 0.880747 0.36401
C_ C_ 0.814815 0.88077 0.882058 0.36401
C_ C_ 0.540027 0.581268 0.833016 0.16698
C_ C_ 0.543932 0.835055 0.829238 0.16698
C_ C_ 0.791854 0.583721 0.829886 0.16698
C_ C_ 0.792963 0.833246 0.832821 0.16698
C_ C_ 0.523804 0.541564 0.761204 -0.12085
C_ C_ 0.525737 0.795921 0.756672 -0.12085
C_ C_ 0.771645 0.545535 0.758847 -0.12085
C_ C_ 0.776331 0.795659 0.760361 -0.12085
C_ C_ 0.590903 0.660166 0.919786 0.15351
C_ C_ 0.588374 0.912419 0.913601 0.15351
C_ C_ 0.832103 0.655686 0.925029 0.15351
C_ C_ 0.837939 0.909026 0.923804 0.15351
C_ C_ 0.627543 0.687762 0.909517 -0.35079
C_ C_ 0.626581 0.935388 0.901664 -0.35079
C_ C_ 0.86873 0.684659 0.925388 -0.35079
C_ C_ 0.875373 0.936933 0.916676 -0.35079
C_ C_ 0.669939 0.647854 0.975647 -0.12085
C_ C_ 0.663455 0.905539 0.97252 -0.12085
C_ C_ 0.923611 0.651981 0.976897 -0.12085
C_ C_ 0.923761 0.90706 0.976414 -0.12085
C_ C_ 0.692097 0.692848 0.554187 0.6956
C_ C_ 0.686747 0.944564 0.551007 0.6956
C_ C_ 0.933373 0.692263 0.546918 0.6956
C_ C_ 0.935384 0.945043 0.549559 0.6956
C_ C_ 0.700929 0.681145 0.509307 -0.16651
C_ C_ 0.698561 0.932502 0.50803 -0.16651
C_ C_ 0.94678 0.682163 0.505658 -0.16651
C_ C_ 0.94883 0.934659 0.507559 -0.16651
C_ C_ 0.491001 0.693968 0.956828 -0.12085
C_ C_ 0.491779 0.943076 0.956501 -0.12085
C_ C_ 0.73459 0.695526 0.952961 -0.12085
C_ C_ 0.73581 0.949565 0.956171 -0.12085
C_ C_ 0.681306 0.63866 0.935864 0.16698
C_ C_ 0.679072 0.893986 0.935865 0.16698
C_ C_ 0.93261 0.643344 0.935014 0.16698
C_ C_ 0.934477 0.896565 0.935618 0.16698
C_ C_ 0.683495 0.622017 0.868703 0.36401
C_ C_ 0.68359 0.877315 0.869227 0.36401
C_ C_ 0.93546 0.626129 0.867732 0.36401
C_ C_ 0.936944 0.876759 0.869725 0.36401
C_ C_ 0.715673 0.662797 0.927824 0.16698
C_ C_ 0.715296 0.916003 0.92913 0.16698
C_ C_ 0.96727 0.667155 0.924759 0.16698
C_ C_ 0.970561 0.916253 0.9271 0.16698
C_ C_ 0.736069 0.701369 0.497067 -0.12085
C_ C_ 0.735625 0.952558 0.497104 -0.12085
C_ C_ 0.986631 0.70114 0.498974 -0.12085
C_ C_ 0.981365 0.956644 0.49403 -0.12085
C_ C_ 0.668906 0.607929 0.821305 0.15351
C_ C_ 0.671963 0.859732 0.821365 0.15351
C_ C_ 0.920812 0.610382 0.820547 0.15351
C_ C_ 0.923482 0.857603 0.822505 0.15351
C_ C_ 0.656738 0.571664 0.79835 -0.35079
C_ C_ 0.662649 0.820901 0.805896 -0.35079
C_ C_ 0.911019 0.571491 0.800646 -0.35079
C_ C_ 0.919146 0.819932 0.813058 -0.35079
N_ N_ 0.707444 0.615382 0.651094 -0.51457
N_ N_ 0.70804 0.866366 0.647161 -0.51457
N_ N_ 0.957517 0.613208 0.64574 -0.51457
N_ N_ 0.955211 0.864595 0.648054 -0.51457
N_ N_ 0.67869 0.649429 0.637972 -0.51457
N_ N_ 0.682563 0.901618 0.631427 -0.51457
N_ N_ 0.929377 0.648232 0.633072 -0.51457
N_ N_ 0.925877 0.899134 0.635493 -0.51457
N_ N_ 0.590898 0.631841 0.606323 -0.51457
N_ N_ 0.586381 0.883076 0.599564 -0.51457
N_ N_ 0.841108 0.634361 0.602503 -0.51457
N_ N_ 0.83734 0.884649 0.600579 -0.51457
N_ N_ 0.528258 0.597908 0.618259 -0.51457
N_ N_ 0.523566 0.848844 0.612155 -0.51457
N_ N_ 0.779084 0.600483 0.614271 -0.51457
N_ N_ 0.779205 0.846883 0.61545 -0.51457
N_ N_ 0.542585 0.634704 0.850876 -0.51457
N_ N_ 0.537652 0.884331 0.85019 -0.51457
N_ N_ 0.792228 0.636634 0.851644 -0.51457
N_ N_ 0.792191 0.885166 0.851256 -0.51457
N_ N_ 0.563385 0.597503 0.871654 -0.51457
N_ N_ 0.566868 0.851266 0.867164 -0.51457
N_ N_ 0.81723 0.600121 0.866633 -0.51457
N_ N_ 0.816116 0.849271 0.870022 -0.51457
N_ N_ 0.658309 0.614171 0.89971 -0.51457
N_ N_ 0.65845 0.869231 0.898399 -0.51457
N_ N_ 0.90957 0.617597 0.898313 -0.51457
N_ N_ 0.911115 0.871429 0.898709 -0.51457
N_ N_ 0.720728 0.65171 0.88646 -0.51457
N_ N_ 0.720253 0.905819 0.887998 -0.51457
N_ N_ 0.971176 0.655746 0.883753 -0.51457
N_ N_ 0.973563 0.904858 0.884435 -0.51457
O_ O_ 0.512254 0.722663 0.82673 -0.61362
O_ O_ 0.520396 0.980217 0.827373 -0.61362
O_ O_ 0.774276 0.73054 0.826665 -0.61362
O_ O_ 0.771094 0.979963 0.822394 -0.61362
O_ O_ 0.552021 0.715629 0.882058 -0.98607
O_ O_ 0.558069 0.968547 0.88145 -0.98607
O_ O_ 0.800293 0.718736 0.886801 -0.98607
O_ O_ 0.802687 0.967214 0.886853 -0.98607
O_ O_ 0.522078 0.674452 0.810236 -0.61362
O_ O_ 0.510645 0.926478 0.816178 -0.61362
O_ O_ 0.76784 0.675998 0.816207 -0.61362
O_ O_ 0.7689 0.928027 0.812484 -0.61362
O_ O_ 0.677474 0.576983 0.562851 -0.55956
O_ O_ 0.686373 0.829767 0.557822 -0.55956
O_ O_ 0.943487 0.583679 0.553718 -0.55956
O_ O_ 0.9269 0.826169 0.557719 -0.55956
O_ O_ 0.539536 0.522601 0.928376 -0.61362
O_ O_ 0.546366 0.777454 0.922056 -0.61362
O_ O_ 0.794534 0.523422 0.924443 -0.61362
O_ O_ 0.787196 0.780199 0.923028 -0.61362
O_ O_ 0.590916 0.535111 0.877421 -0.98607
O_ O_ 0.590186 0.786338 0.870259 -0.98607
O_ O_ 0.842352 0.537016 0.869583 -0.98607
O_ O_ 0.842254 0.788802 0.873985 -0.98607
O_ O_ 0.588875 0.57553 0.93945 -0.61362
O_ O_ 0.599098 0.830771 0.938474 -0.61362
O_ O_ 0.841179 0.577573 0.936911 -0.61362
O_ O_ 0.844281 0.831026 0.941205 -0.61362
O_ O_ 0.604619 0.627789 0.688691 -0.55956
O_ O_ 0.60395 0.877328 0.682769 -0.55956
O_ O_ 0.860556 0.638727 0.68989 -0.55956
O_ O_ 0.852347 0.902906 0.694458 -0.55956
O_ O_ 0.727527 0.524617 0.675973 -0.61362
O_ O_ 0.729655 0.772076 0.67773 -0.61362
O_ O_ 0.98547 0.523963 0.674467 -0.61362
O_ O_ 0.981887 0.773112 0.675239 -0.61362
O_ O_ 0.697392 0.532562 0.612338 -0.98607
O_ O_ 0.695671 0.782184 0.619025 -0.98607
O_ O_ 0.950936 0.532176 0.617559 -0.98607
O_ O_ 0.942864 0.782963 0.618781 -0.98607
O_ O_ 0.742054 0.580837 0.686724 -0.61362
O_ O_ 0.734631 0.826309 0.688982 -0.61362
O_ O_ 0.978339 0.572864 0.69031 -0.61362
O_ O_ 0.981439 0.825625 0.688687 -0.61362
O_ O_ 0.570294 0.673611 0.942219 -0.55956
O_ O_ 0.568846 0.929051 0.931967 -0.55956
O_ O_ 0.808618 0.666441 0.943373 -0.55956
O_ O_ 0.814657 0.922749 0.941094 -0.55956
O_ O_ 0.712708 0.724937 0.579497 -0.61362
O_ O_ 0.709327 0.976556 0.577177 -0.61362
O_ O_ 0.952295 0.724088 0.571967 -0.61362
O_ O_ 0.953811 0.976772 0.574838 -0.61362
O_ O_ 0.656461 0.71427 0.629704 -0.98607
O_ O_ 0.659365 0.963135 0.628465 -0.98607
O_ O_ 0.909819 0.715313 0.628606 -0.98607
O_ O_ 0.899186 0.962923 0.621907 -0.98607
O_ O_ 0.662923 0.670818 0.565539 -0.61362
O_ O_ 0.653844 0.924194 0.561731 -0.61362
O_ O_ 0.911258 0.66896 0.563811 -0.61362
O_ O_ 0.908203 0.922919 0.562321 -0.61362
O_ O_ 0.640375 0.615287 0.813239 -0.55956
O_ O_ 0.643771 0.86281 0.803166 -0.55956
O_ O_ 0.892611 0.616285 0.809674 -0.55956
O_ O_ 0.892242 0.858547 0.809666 -0.55956
_cell_length_a 37.194
_cell_length_b 45.259999627434034
_cell_length_c 33.09000048594031
_cell_angle_alpha 107.03300062247644
_cell_angle_beta 90.06299939653213
_cell_angle_gamma 114.03899985713122
_symmetry_space_group_name_H-M         'P 1'
_symmetry_Int_Tables_number            1
loop_
_symmetry_equiv_pos_as_xyz
   'x, y, z'
                         
loop_
_atom_site_label
_atom_site_type_symbol
_atom_site_fract_x 
_atom_site_fract_y
_atom_site_fract_z
_atom_site_charge
Zn Zn 0.0275653 0.177953 0.36396 0.91541
Zn Zn 0.0268461 0.425076 0.363483 0.91541
Zn Zn 0.274011 0.172528 0.366514 0.91541
Zn Zn 0.27732 0.42382 0.363231 0.91541
Zn Zn 0.103469 0.0822937 0.386976 0.91541
Zn Zn 0.111349 0.333309 0.384428 0.91541
Zn Zn 0.352556 0.0787071 0.388602 0.91541
Zn Zn 0.351969 0.328196 0.384573 0.91541
Zn Zn 0.224181 0.0762212 0.135739 0.91541
Zn Zn 0.2271 0.325114 0.131864 0.91541
Zn Zn 0.474814 0.0738378 0.135533 0.91541
Zn Zn 0.478216 0.329559 0.138034 0.91541
Zn Zn 0.149407 0.170983 0.113417 0.91541
Zn Zn 0.144181 0.416474 0.112839 0.91541
Zn Zn 0.396276 0.169163 0.119751 0.91541
Zn Zn 0.39537 0.419997 0.112285 0.91541
Zn Zn 0.0540477 0.00447089 0.377089 1.11764
Zn Zn 0.052818 0.25498 0.372823 1.11764
Zn Zn 0.303208 0.00198559 0.376913 1.11764
Zn Zn 0.301808 0.25275 0.376576 1.11764
Zn Zn 0.191509 0.494826 0.128614 1.11764
Zn Zn 0.198332 0.248215 0.124393 1.11764
Zn Zn 0.445343 0.497758 0.124578 1.11764
Zn Zn 0.450025 0.24835 0.12868 1.11764
H_ H_ 0.251302 0.140121 0.229833 0.1146
H_ H_ 0.253344 0.386573 0.224504 0.1146
H_ H_ 0.505697 0.137465 0.227005 0.1146
H_ H_ 0.509396 0.39582 0.231866 0.1146
H_ H_ 0.191454 0.212977 0.196419 0.1146
H_ H_ 0.185402 0.452355 0.192729 0.1146
H_ H_ 0.442553 0.206837 0.196019 0.1146
H_ H_ 0.432459 0.459724 0.203648 0.1146
H_ H_ 0.232949 0.23212 0.265016 0.1146
H_ H_ 0.221484 0.472316 0.26699 0.1146
H_ H_ 0.476587 0.226652 0.270241 0.1146
H_ H_ 0.468924 0.476656 0.270923 0.1146
H_ H_ 0.225963 0.105225 0.0489729 0.42917
H_ H_ 0.176898 0.31192 0.0319089 0.42917
H_ H_ 0.445371 0.0736205 0.0489422 0.42917
H_ H_ 0.44624 0.323436 0.0397776 0.42917
H_ H_ 0.164694 0.116283 0.0554002 0.1146
H_ H_ 0.146423 0.350066 0.0599485 0.1146
H_ H_ 0.403733 0.102405 0.060841 0.1146
H_ H_ 0.415364 0.359911 0.06052 0.1146
H_ H_ 0.128457 0.0541211 0.0272786 0.1146
H_ H_ 0.0977153 0.288659 0.0634194 0.1146
H_ H_ 0.371482 0.0537154 0.114392 0.1146
H_ H_ 0.376705 0.306642 0.109082 0.1146
H_ H_ 0.143681 0.0492029 0.0721782 0.1146
H_ H_ 0.121715 0.297933 0.114917 0.1146
H_ H_ 0.34602 0.0726416 0.0912533 0.1146
H_ H_ 0.353088 0.32877 0.09392 0.1146
H_ H_ 0.114091 0.0669456 0.0837179 0.1146
H_ H_ 0.0974278 0.324688 0.106592 0.1146
H_ H_ 0.359156 0.0423752 0.0602442 0.1146
H_ H_ 0.362313 0.298751 0.0529013 0.1146
H_ H_ 0.0832321 0.230104 0.396891 0.42917
H_ H_ 0.0733286 0.473032 0.405427 0.42917
H_ H_ 0.330497 0.222221 0.393182 0.42917
H_ H_ 0.331841 0.475009 0.394701 0.42917
H_ H_ 0.11222 0.110108 0.0218991 0.1146
H_ H_ 0.107041 0.360292 0.019758 0.1146
H_ H_ 0.356704 0.114167 0.0174574 0.1146
H_ H_ 0.361881 0.357102 0.0213607 0.1146
H_ H_ 0.224029 0.0443473 0.0494147 0.1146
H_ H_ 0.227299 0.292982 0.0463792 0.1146
H_ H_ 0.484968 0.0325917 0.0537464 0.1146
H_ H_ 0.490576 0.290786 0.0568918 0.1146
H_ H_ 0.252274 0.0187631 0.490685 0.1146
H_ H_ 0.25009 0.268068 0.483406 0.1146
H_ H_ 0.500385 0.0263135 0.47873 0.1146
H_ H_ 0.502445 0.270789 0.485553 0.1146
H_ H_ 0.132763 0.157069 0.214514 0.42917
H_ H_ 0.112679 0.368052 0.20038 0.42917
H_ H_ 0.375624 0.145577 0.207058 0.42917
H_ H_ 0.361637 0.372858 0.198649 0.42917
H_ H_ 0.056616 0.12957 0.197432 0.1146
H_ H_ 0.051739 0.373531 0.193159 0.1146
H_ H_ 0.30301 0.125276 0.1926 0.1146
H_ H_ 0.301008 0.37438 0.188419 0.1146
H_ H_ 0.0589922 0.186184 0.176636 0.1146
H_ H_ 0.0645869 0.429967 0.185734 0.1146
H_ H_ 0.308093 0.182079 0.175549 0.1146
H_ H_ 0.31126 0.433664 0.185252 0.1146
H_ H_ 0.0774183 0.188378 0.227357 0.1146
H_ H_ 0.0954784 0.433382 0.230279 0.1146
H_ H_ 0.326861 0.188468 0.229453 0.1146
H_ H_ 0.338847 0.435498 0.232253 0.1146
H_ H_ 0.109553 0.196249 0.186743 0.1146
H_ H_ 0.117247 0.437162 0.184844 0.1146
H_ H_ 0.359034 0.196725 0.192616 0.1146
H_ H_ 0.364269 0.443398 0.187806 0.1146
H_ H_ 0.11649 0.0350659 0.372005 0.42917
H_ H_ 0.116443 0.282425 0.368836 0.42917
H_ H_ 0.361621 0.029652 0.363434 0.42917
H_ H_ 0.355322 0.277345 0.349826 0.42917
H_ H_ 1.00289859 0.115398 0.269477 0.1146
H_ H_ 0.999344 0.362272 0.271277 0.1146
H_ H_ 0.238675 0.10642 0.277097 0.1146
H_ H_ 0.246984 0.359575 0.269774 0.1146
H_ H_ 0.0586579 0.0411368 0.306564 0.1146
H_ H_ 0.0505309 0.286219 0.304084 0.1146
H_ H_ 0.30967 0.0403388 0.306459 0.1146
H_ H_ 0.304604 0.289061 0.306062 0.1146
H_ H_ 0.0285796 0.027497 0.232666 0.1146
H_ H_ 0.0160763 0.271599 0.234265 0.1146
H_ H_ 0.280143 0.0253383 0.233567 0.1146
H_ H_ 0.276645 0.274333 0.230487 0.1146
H_ H_ 0.0634828 0.1737 0.47159 0.42917
H_ H_ 0.0777825 0.434833 0.469094 0.42917
H_ H_ 0.313209 0.180241 0.465727 0.42917
H_ H_ 0.324117 0.439596 0.456684 0.42917
H_ H_ 0.103973 0.146454 0.432284 0.1146
H_ H_ 0.113746 0.4013 0.432646 0.1146
H_ H_ 0.356058 0.153234 0.445435 0.1146
H_ H_ 0.349481 0.397028 0.43999 0.1146
H_ H_ 0.113684 0.195692 0.383667 0.1146
H_ H_ 0.117356 0.449383 0.385225 0.1146
H_ H_ 0.397073 0.207375 0.442986 0.1146
H_ H_ 0.405173 0.448787 0.433832 0.1146
H_ H_ 0.144873 0.17695 0.392891 0.1146
H_ H_ 0.142796 0.427733 0.382209 0.1146
H_ H_ 0.374622 0.199152 0.389022 0.1146
H_ H_ 0.381934 0.450296 0.390189 0.1146
H_ H_ 0.147294 0.212801 0.430859 0.1146
H_ H_ 0.151183 0.455713 0.435555 0.1146
H_ H_ 0.396478 0.174448 0.397287 0.1146
H_ H_ 0.397055 0.415059 0.386963 0.1146
H_ H_ 0.164277 0.0245039 0.112307 0.42917
H_ H_ 0.169576 0.272841 0.099851 0.42917
H_ H_ 0.417005 0.0239859 0.103476 0.42917
H_ H_ 0.422485 0.278759 0.108195 0.42917
H_ H_ 0.139079 0.138928 0.483223 0.1146
H_ H_ 0.150809 0.384671 0.484132 0.1146
H_ H_ 0.389287 0.137266 0.4796 0.1146
H_ H_ 0.388835 0.384342 0.477821 0.1146
H_ H_ 0.0316416 0.216391 0.452952 0.1146
H_ H_ 0.0219876 0.459104 0.448212 0.1146
H_ H_ 0.272926 0.210339 0.451893 0.1146
H_ H_ 0.269185 0.469217 0.446855 0.1146
H_ H_ 0.005349999999999966 0.219813 0.0218904 0.1146
H_ H_ 0.990689 0.478897 0.0137182 0.1146
H_ H_ 0.250906 0.231886 0.0157042 0.1146
H_ H_ 0.243409 0.480919 0.0175426 0.1146
H_ H_ 0.123227 0.117341 0.291608 0.42917
H_ H_ 0.127741 0.370352 0.299857 0.42917
H_ H_ 0.381148 0.127774 0.313704 0.42917
H_ H_ 0.372229 0.372742 0.298492 0.42917
H_ H_ 0.194753 0.128172 0.308722 0.1146
H_ H_ 0.199334 0.380674 0.304136 0.1146
H_ H_ 0.448902 0.120584 0.305417 0.1146
H_ H_ 0.442609 0.378979 0.308702 0.1146
H_ H_ 0.180247 0.0674184 0.313526 0.1146
H_ H_ 0.150299 0.322503 0.266408 0.1146
H_ H_ 0.41235 0.0689006 0.266608 0.1146
H_ H_ 0.433699 0.317788 0.311353 0.1146
H_ H_ 0.163896 0.0724616 0.267509 0.1146
H_ H_ 0.135559 0.310968 0.313452 0.1146
H_ H_ 0.38272 0.0527557 0.307458 0.1146
H_ H_ 0.414021 0.318893 0.262903 0.1146
H_ H_ 0.129325 0.0567102 0.300912 0.1146
H_ H_ 0.184708 0.321024 0.305666 0.1146
H_ H_ 0.438166 0.0662549 0.315233 0.1146
H_ H_ 0.384491 0.303357 0.301365 0.1146
H_ H_ 0.14304 0.219732 0.140962 0.42917
H_ H_ 0.128881 0.461545 0.12548 0.42917
H_ H_ 0.390433 0.219524 0.138364 0.42917
H_ H_ 0.381825 0.46497 0.130309 0.42917
C_ C_ 0.238376 0.156205 0.222465 -0.12085
C_ C_ 0.241366 0.403078 0.217918 -0.12085
C_ C_ 0.494553 0.154575 0.221977 -0.12085
C_ C_ 0.491599 0.408812 0.224696 -0.12085
C_ C_ 0.0111409 0.197823 0.297415 0.6956
C_ C_ 0.0112046 0.444507 0.300424 0.6956
C_ C_ 0.258312 0.19554 0.301467 0.6956
C_ C_ 0.264054 0.445169 0.295392 0.6956
C_ C_ 0.240938 0.185899 0.254782 -0.16651
C_ C_ 0.243114 0.433137 0.250717 -0.16651
C_ C_ 0.49447 0.184881 0.25666 -0.16651
C_ C_ 0.487306 0.43484 0.258653 -0.16651
C_ C_ 0.206058 0.19785 0.20252 -0.12085
C_ C_ 0.20621 0.442798 0.199897 -0.12085
C_ C_ 0.461356 0.195423 0.202301 -0.12085
C_ C_ 0.448832 0.444793 0.207724 -0.12085
C_ C_ 0.218736 0.146947 0.180566 0.16698
C_ C_ 0.222682 0.394413 0.175376 0.16698
C_ C_ 0.472661 0.145031 0.180166 0.16698
C_ C_ 0.470562 0.398764 0.182563 0.16698
C_ C_ 0.183478 0.120967 0.11931 0.36401
C_ C_ 0.180666 0.366551 0.117887 0.36401
C_ C_ 0.430099 0.118373 0.124566 0.36401
C_ C_ 0.435018 0.372219 0.121558 0.36401
C_ C_ 0.203909 0.168055 0.171833 0.16698
C_ C_ 0.20603 0.415126 0.167183 0.16698
C_ C_ 0.460036 0.167278 0.17073 0.16698
C_ C_ 0.450342 0.416944 0.174797 0.16698
C_ C_ 0.226421 0.207007 0.242481 -0.12085
C_ C_ 0.222978 0.450862 0.241113 -0.12085
C_ C_ 0.476975 0.204395 0.246206 -0.12085
C_ C_ 0.464922 0.451554 0.248765 -0.12085
C_ C_ 0.172097 0.101311 0.0715029 0.15351
C_ C_ 0.154565 0.337658 0.0795708 0.15351
C_ C_ 0.407579 0.0897063 0.0844586 0.15351
C_ C_ 0.417274 0.345525 0.079848 0.15351
C_ C_ 0.137595 0.0667304 0.0625342 -0.35079
C_ C_ 0.116414 0.311064 0.0922547 -0.35079
C_ C_ 0.367774 0.0634108 0.0894965 -0.35079
C_ C_ 0.375751 0.318906 0.084297 -0.35079
C_ C_ 0.0815464 0.0992436 0.0253669 -0.12085
C_ C_ 0.0771696 0.344563 0.0229257 -0.12085
C_ C_ 0.328155 0.0999244 0.022761 -0.12085
C_ C_ 0.331753 0.346606 0.0238274 -0.12085
C_ C_ 0.0667557 0.0601095 0.449895 0.6956
C_ C_ 0.0657831 0.308104 0.445979 0.6956
C_ C_ 0.312543 0.0561064 0.452299 0.6956
C_ C_ 0.316949 0.304234 0.451935 0.6956
C_ C_ 0.0531118 0.0728949 0.492526 -0.16651
C_ C_ 0.0556561 0.319282 0.489995 -0.16651
C_ C_ 0.303211 0.0673766 0.497403 -0.16651
C_ C_ 0.306119 0.314849 0.498137 -0.16651
C_ C_ 0.255004 0.0566727 0.0431724 -0.12085
C_ C_ 0.256363 0.308079 0.039259 -0.12085
C_ C_ 0.505186 0.054009 0.0446244 -0.12085
C_ C_ 0.508629 0.310842 0.0455551 -0.12085
C_ C_ 0.0698504 0.110245 0.0660913 0.16698
C_ C_ 0.0642906 0.355077 0.0607838 0.16698
C_ C_ 0.316917 0.107775 0.0656185 0.16698
C_ C_ 0.317524 0.35839 0.063076 0.16698
C_ C_ 0.0660232 0.125998 0.133288 0.36401
C_ C_ 0.060791 0.371349 0.129207 0.36401
C_ C_ 0.312564 0.12428 0.130894 0.36401
C_ C_ 0.312959 0.375741 0.127287 0.36401
C_ C_ 0.0338131 0.0897267 0.0741647 0.16698
C_ C_ 0.0286096 0.334119 0.0706088 0.16698
C_ C_ 0.281458 0.0861322 0.0739212 0.16698
C_ C_ 0.282338 0.337939 0.0711332 0.16698
C_ C_ 0.0168457 0.0505943 0.503509 -0.12085
C_ C_ 0.0203794 0.296882 0.500414 -0.12085
C_ C_ 0.270457 0.0453609 0.509865 -0.12085
C_ C_ 0.272397 0.29187 0.510309 -0.12085
C_ C_ 0.078194 0.14449 0.179897 0.15351
C_ C_ 0.0752587 0.385899 0.176701 0.15351
C_ C_ 0.324595 0.140172 0.177635 0.15351
C_ C_ 0.325497 0.389914 0.176438 0.15351
C_ C_ 0.0805071 0.179715 0.19207 -0.35079
C_ C_ 0.0886132 0.423388 0.194692 -0.35079
C_ C_ 0.329541 0.177636 0.194915 -0.35079
C_ C_ 0.335736 0.428232 0.19725 -0.35079
C_ C_ 0.0120566 0.0971921 0.276649 -0.12085
C_ C_ 0.00922851 0.346541 0.279021 -0.12085
C_ C_ 0.259715 0.0951165 0.28127 -0.12085
C_ C_ 0.26423 0.346677 0.275162 -0.12085
C_ C_ 0.237523 0.053086 0.201597 0.6956
C_ C_ 0.239978 0.303787 0.198505 0.6956
C_ C_ 0.483449 0.0477851 0.200589 0.6956
C_ C_ 0.486708 0.303276 0.205221 0.6956
C_ C_ 0.0106658 0.0665602 0.244593 -0.16651
C_ C_ 0.00559525 0.31607 0.246776 -0.16651
C_ C_ 0.257398 0.0651495 0.247922 -0.16651
C_ C_ 0.259309 0.314848 0.244886 -0.16651
C_ C_ 0.0409232 0.0551193 0.30084 -0.12085
C_ C_ 0.043364 0.304079 0.296371 -0.12085
C_ C_ 0.30054 0.0575924 0.297915 -0.12085
C_ C_ 0.292605 0.304357 0.297937 -0.12085
C_ C_ 0.0289982 0.105454 0.320141 0.16698
C_ C_ 0.0303062 0.35446 0.318873 0.16698
C_ C_ 0.284983 0.106957 0.320694 0.16698
C_ C_ 0.280988 0.354227 0.317537 0.16698
C_ C_ 0.0636667 0.132092 0.380756 0.36401
C_ C_ 0.0694568 0.381696 0.377359 0.36401
C_ C_ 0.315922 0.130338 0.385375 0.36401
C_ C_ 0.315722 0.379823 0.378491 0.36401
C_ C_ 0.0419924 0.0839532 0.33119 0.16698
C_ C_ 0.0485587 0.334574 0.32593 0.16698
C_ C_ 0.303444 0.0875485 0.329703 0.16698
C_ C_ 0.294886 0.333702 0.328145 0.16698
C_ C_ 0.0251414 0.0471833 0.257652 -0.12085
C_ C_ 0.0242715 0.296588 0.256097 -0.12085
C_ C_ 0.280141 0.0476446 0.257777 -0.12085
C_ C_ 0.276547 0.296179 0.25701 -0.12085
C_ C_ 0.0917564 0.16159 0.419543 0.15351
C_ C_ 0.0972075 0.41066 0.416271 0.15351
C_ C_ 0.342872 0.161106 0.421982 0.15351
C_ C_ 0.345444 0.408521 0.416519 0.15351
C_ C_ 0.125335 0.187887 0.407095 -0.35079
C_ C_ 0.129804 0.440321 0.405677 -0.35079
C_ C_ 0.380678 0.188694 0.413457 -0.35079
C_ C_ 0.383367 0.431603 0.405264 -0.35079
C_ C_ 0.167347 0.15459 0.476304 -0.12085
C_ C_ 0.176734 0.403294 0.474654 -0.12085
C_ C_ 0.41946 0.153362 0.475393 -0.12085
C_ C_ 0.418476 0.39849 0.473408 -0.12085
C_ C_ 0.184666 0.193393 0.0497652 0.6956
C_ C_ 0.180612 0.444611 0.0501336 0.6956
C_ C_ 0.434169 0.191877 0.0539443 0.6956
C_ C_ 0.434936 0.442025 0.0522437 0.6956
C_ C_ 0.198286 0.183773 0.00700508 -0.16651
C_ C_ 0.190379 0.433523 0.00661047 -0.16651
C_ C_ 0.442916 0.180813 0.00744802 -0.16651
C_ C_ 0.445009 0.431559 0.00718695 -0.16651
C_ C_ 1.00333658 0.196175 0.459238 -0.12085
C_ C_ 0.995926 0.441319 0.455513 -0.12085
C_ C_ 0.243813 0.19695 0.460564 -0.12085
C_ C_ 0.248085 0.44939 0.456969 -0.12085
C_ C_ 0.180663 0.144506 0.436418 0.16698
C_ C_ 0.188627 0.393678 0.434223 0.16698
C_ C_ 0.431763 0.145973 0.434389 0.16698
C_ C_ 0.432546 0.388911 0.434282 0.16698
C_ C_ 0.184332 0.12858 0.369837 0.36401
C_ C_ 0.191353 0.380876 0.36907 0.36401
C_ C_ 0.436135 0.124127 0.368539 0.36401
C_ C_ 0.433007 0.374502 0.366153 0.36401
C_ C_ 0.217157 0.167409 0.428368 0.16698
C_ C_ 0.226592 0.416038 0.427833 0.16698
C_ C_ 0.467741 0.166209 0.424364 0.16698
C_ C_ 0.467633 0.409786 0.426837 0.16698
C_ C_ 0.233797 0.204599 0.995896 -0.12085
C_ C_ 0.227844 0.455208 0.994781 -0.12085
C_ C_ 0.480546 0.201029 -0.0022140000000000493 -0.12085
C_ C_ 0.483274 0.449497 0.99811838 -0.12085
C_ C_ 0.169988 0.113453 0.321045 0.15351
C_ C_ 0.175303 0.368294 0.322634 0.15351
C_ C_ 0.42288 0.109286 0.322123 0.15351
C_ C_ 0.417617 0.361151 0.317984 0.15351
C_ C_ 0.159162 0.0756539 0.300553 -0.35079
C_ C_ 0.1604 0.328967 0.300953 -0.35079
C_ C_ 0.412844 0.0707497 0.301664 -0.35079
C_ C_ 0.411129 0.323666 0.299385 -0.35079
N_ N_ 0.206512 0.116177 0.147849 -0.51457
N_ N_ 0.207784 0.363042 0.144728 -0.51457
N_ N_ 0.45652 0.113929 0.15001 -0.51457
N_ N_ 0.460858 0.369194 0.148885 -0.51457
N_ N_ 0.18319 0.153317 0.133261 -0.51457
N_ N_ 0.178509 0.397677 0.132196 -0.51457
N_ N_ 0.430906 0.150713 0.136979 -0.51457
N_ N_ 0.429571 0.402124 0.133913 -0.51457
N_ N_ 0.090844 0.135705 0.103931 -0.51457
N_ N_ 0.0861212 0.38037 0.098665 -0.51457
N_ N_ 0.338603 0.133271 0.102802 -0.51457
N_ N_ 0.339679 0.38355 0.0991315 -0.51457
N_ N_ 0.0297278 0.0983991 0.116241 -0.51457
N_ N_ 0.0251522 0.344252 0.11243 -0.51457
N_ N_ 0.27754 0.0954462 0.114839 -0.51457
N_ N_ 0.276289 0.347436 0.110563 -0.51457
N_ N_ 0.0414294 0.136186 0.352063 -0.51457
N_ N_ 0.0432394 0.385063 0.351377 -0.51457
N_ N_ 0.290839 0.133115 0.356229 -0.51457
N_ N_ 0.293573 0.38445 0.348885 -0.51457
N_ N_ 0.0663853 0.100123 0.367621 -0.51457
N_ N_ 0.0730227 0.350463 0.362878 -0.51457
N_ N_ 0.322237 0.100786 0.369864 -0.51457
N_ N_ 0.317261 0.348325 0.365337 -0.51457
N_ N_ 0.159362 0.119738 0.399191 -0.51457
N_ N_ 0.165571 0.370636 0.397445 -0.51457
N_ N_ 0.409264 0.118773 0.399179 -0.51457
N_ N_ 0.408528 0.364418 0.397195 -0.51457
N_ N_ 0.220989 0.156021 0.38674 -0.51457
N_ N_ 0.227152 0.407686 0.385775 -0.51457
N_ N_ 0.471279 0.153711 0.383419 -0.51457
N_ N_ 0.469214 0.403462 0.385238 -0.51457
O_ O_ 0.0242897 0.229531 0.322114 -0.61362
O_ O_ 0.0180292 0.474738 0.326926 -0.61362
O_ O_ 0.265903 0.226211 0.328801 -0.61362
O_ O_ 0.271627 0.476725 0.319846 -0.61362
O_ O_ 0.0621964 0.223595 0.380751 -0.98607
O_ O_ 0.0577371 0.467724 0.384046 -0.98607
O_ O_ 0.307763 0.218471 0.382935 -0.98607
O_ O_ 0.308824 0.46835 0.382828 -0.98607
O_ O_ 0.0154007 0.175204 0.311522 -0.61362
O_ O_ 0.0225412 0.423921 0.310987 -0.61362
O_ O_ 0.269726 0.175277 0.31469 -0.61362
O_ O_ 0.27203 0.424027 0.308316 -0.61362
O_ O_ 0.201911 0.0960819 0.0547733 -0.55956
O_ O_ 0.173712 0.32165 0.0577348 -0.55956
O_ O_ 0.429851 0.0756061 0.0682033 -0.55956
O_ O_ 0.437957 0.329995 0.0627759 -0.55956
O_ O_ 0.0440426 0.0308978 0.422722 -0.61362
O_ O_ 0.042558 0.277525 0.419786 -0.61362
O_ O_ 0.289225 0.0253461 0.425096 -0.61362
O_ O_ 0.294304 0.27261 0.426136 -0.61362
O_ O_ 0.0957653 0.0394922 0.377636 -0.98607
O_ O_ 0.0971014 0.288576 0.37089 -0.98607
O_ O_ 0.342618 0.0356829 0.368786 -0.98607
O_ O_ 0.340726 0.284074 0.365787 -0.98607
O_ O_ 0.0973819 0.0813766 0.43945 -0.61362
O_ O_ 0.0994087 0.32874 0.436223 -0.61362
O_ O_ 0.344973 0.0768838 0.441376 -0.61362
O_ O_ 0.341378 0.327554 0.436017 -0.61362
O_ O_ 0.112078 0.148159 0.194752 -0.55956
O_ O_ 0.103617 0.379114 0.187061 -0.55956
O_ O_ 0.357882 0.139798 0.186617 -0.55956
O_ O_ 0.354001 0.384552 0.186095 -0.55956
O_ O_ 0.226926 0.0213305 0.17739 -0.61362
O_ O_ 0.232872 0.272744 0.171236 -0.61362
O_ O_ 0.476729 0.0172126 0.17535 -0.61362
O_ O_ 0.480521 0.272448 0.178748 -0.61362
O_ O_ 0.189594 0.031885 0.119499 -0.98607
O_ O_ 0.19173 0.280489 0.116465 -0.98607
O_ O_ 0.439832 0.0297641 0.11664 -0.98607
O_ O_ 0.44712 0.283966 0.120116 -0.98607
O_ O_ 0.228622 0.0736301 0.187343 -0.61362
O_ O_ 0.238072 0.327555 0.185059 -0.61362
O_ O_ 0.476812 0.0692405 0.18696 -0.61362
O_ O_ 0.48195 0.326168 0.189699 -0.61362
O_ O_ 0.075024 0.174412 0.448292 -0.55956
O_ O_ 0.0789646 0.423298 0.443874 -0.55956
O_ O_ 0.323089 0.175715 0.441579 -0.55956
O_ O_ 0.330356 0.4292 0.434153 -0.55956
O_ O_ 0.208454 0.223762 0.0793144 -0.61362
O_ O_ 0.202414 0.476833 0.0769654 -0.61362
O_ O_ 0.453063 0.223713 0.0772934 -0.61362
O_ O_ 0.454388 0.474021 0.0761889 -0.61362
O_ O_ 0.160339 0.214414 0.131505 -0.98607
O_ O_ 0.1513 0.459537 0.125838 -0.98607
O_ O_ 0.40865 0.212918 0.131031 -0.98607
O_ O_ 0.40286 0.46253 0.125461 -0.98607
O_ O_ 0.155642 0.170463 0.0607191 -0.61362
O_ O_ 0.15167 0.421302 0.0620134 -0.61362
O_ O_ 0.413077 0.16843 0.070229 -0.61362
O_ O_ 0.403493 0.42153 0.0624046 -0.61362
O_ O_ 0.140095 0.117997 0.310589 -0.55956
O_ O_ 0.147507 0.374749 0.31655 -0.55956
O_ O_ 0.393024 0.114195 0.312128 -0.55956
O_ O_ 0.386762 0.366081 0.309438 -0.55956
Zn Zn 0.0217932 0.170062 0.861141 0.91541
Zn Zn 0.0212628 0.420847 0.862053 0.91541
Zn Zn 0.276622 0.174358 0.863996 0.91541
Zn Zn 0.270115 0.420889 0.861168 0.91541
Zn Zn 0.107934 0.0817916 0.884002 0.91541
Zn Zn 0.10203 0.328652 0.886555 0.91541
Zn Zn 0.350354 0.0791538 0.883168 0.91541
Zn Zn 0.35454 0.332357 0.88743 0.91541
Zn Zn 0.223418 0.0765355 0.638777 0.91541
Zn Zn 0.225492 0.325156 0.639171 0.91541
Zn Zn 0.474583 0.0801463 0.637715 0.91541
Zn Zn 0.475174 0.330112 0.637569 0.91541
Zn Zn 0.144795 0.168623 0.61707 0.91541
Zn Zn 0.146518 0.417502 0.613764 0.91541
Zn Zn 0.397249 0.173715 0.615779 0.91541
Zn Zn 0.396846 0.420183 0.616872 0.91541
Zn Zn 0.054764 0.00269522 0.873815 1.11764
Zn Zn 0.0508587 0.247741 0.873137 1.11764
Zn Zn 0.302701 0.000142481 0.87149 1.11764
Zn Zn 0.303841 0.252623 0.869677 1.11764
Zn Zn 0.201168 0.495995 0.623905 1.11764
Zn Zn 0.192505 0.244385 0.631438 1.11764
Zn Zn 0.447576 0.495883 0.626523 1.11764
Zn Zn 0.447393 0.251838 0.623297 1.11764
H_ H_ 0.251411 0.140973 0.727993 0.1146
H_ H_ 0.252259 0.389298 0.732152 0.1146
H_ H_ 0.503166 0.143919 0.730251 0.1146
H_ H_ 0.504466 0.392908 0.729541 0.1146
H_ H_ 0.18946 0.209599 0.696799 0.1146
H_ H_ 0.184742 0.452547 0.69347 0.1146
H_ H_ 0.450892 0.216618 0.693753 0.1146
H_ H_ 0.438927 0.463126 0.705135 0.1146
H_ H_ 0.225019 0.22752 0.767858 0.1146
H_ H_ 0.219882 0.475214 0.767612 0.1146
H_ H_ 0.469567 0.230388 0.773638 0.1146
H_ H_ 0.472718 0.477957 0.776342 0.1146
H_ H_ 0.176496 0.0655369 0.541845 0.42917
H_ H_ 0.182676 0.316013 0.542564 0.42917
H_ H_ 0.448766 0.0828066 0.539205 0.42917
H_ H_ 0.444579 0.32714 0.538745 0.42917
H_ H_ 0.139172 0.100811 0.569621 0.1146
H_ H_ 0.14678 0.350295 0.563807 0.1146
H_ H_ 0.409026 0.1127 0.559629 0.1146
H_ H_ 0.40261 0.360159 0.560894 0.1146
H_ H_ 0.090388 0.0684562 0.607317 0.1146
H_ H_ 0.101603 0.298148 0.572001 0.1146
H_ H_ 0.356535 0.0840553 0.600575 0.1146
H_ H_ 0.357685 0.328146 0.608295 0.1146
H_ H_ 0.100829 0.0346163 0.580324 0.1146
H_ H_ 0.127421 0.303367 0.619394 0.1146
H_ H_ 0.356989 0.0564212 0.551125 0.1146
H_ H_ 0.35761 0.302627 0.557661 0.1146
H_ H_ 0.124481 0.0603701 0.63379 0.1146
H_ H_ 0.105633 0.332319 0.622462 0.1146
H_ H_ 0.376575 0.0572355 0.60493 0.1146
H_ H_ 0.380618 0.298125 0.600321 0.1146
H_ H_ 0.0763594 0.220189 0.899728 0.42917
H_ H_ 0.0765169 0.471247 0.900933 0.42917
H_ H_ 0.328775 0.222509 0.896457 0.42917
H_ H_ 0.323977 0.472867 0.896778 0.42917
H_ H_ 0.107966 0.115662 0.525061 0.1146
H_ H_ 0.103603 0.370325 0.514888 0.1146
H_ H_ 0.355775 0.118032 0.521433 0.1146
H_ H_ 0.35255 0.36553 0.52038 0.1146
H_ H_ 0.229252 0.0391149 0.5553 0.1146
H_ H_ 0.234666 0.282763 0.557675 0.1146
H_ H_ 0.48128 0.0377723 0.553701 0.1146
H_ H_ 0.488474 0.28719 0.56164 0.1146
H_ H_ 0.242708 0.0256638 0.977271 0.1146
H_ H_ 0.247285 0.277131 0.973643 0.1146
H_ H_ 0.493901 0.0221878 0.98117 0.1146
H_ H_ 0.497247 0.277303 0.982735 0.1146
H_ H_ 0.125481 0.140079 0.700752 0.42917
H_ H_ 0.128746 0.375975 0.676502 0.42917
H_ H_ 0.381087 0.139349 0.697413 0.42917
H_ H_ 0.379998 0.412586 0.719418 0.42917
H_ H_ 0.0473337 0.126676 0.693374 0.1146
H_ H_ 0.0596333 0.375166 0.692105 0.1146
H_ H_ 0.302068 0.128796 0.69438 0.1146
H_ H_ 0.30433 0.381995 0.701075 0.1146
H_ H_ 0.0749443 0.185511 0.727846 0.1146
H_ H_ 0.0670835 0.433457 0.691302 0.1146
H_ H_ 0.374283 0.192548 0.688736 0.1146
H_ H_ 0.306254 0.43364 0.668423 0.1146
H_ H_ 0.104377 0.195456 0.688292 0.1146
H_ H_ 0.100484 0.438821 0.730869 0.1146
H_ H_ 0.324742 0.189536 0.69343 0.1146
H_ H_ 0.314851 0.438961 0.723506 0.1146
H_ H_ 0.049907 0.176082 0.675752 0.1146
H_ H_ 0.119046 0.443536 0.682812 0.1146
H_ H_ 0.350089 0.186523 0.735569 0.1146
H_ H_ 0.352458 0.45207 0.694761 0.1146
H_ H_ 0.118177 0.034336 0.862524 0.42917
H_ H_ 0.113964 0.280933 0.877377 0.42917
H_ H_ 0.365199 0.0320528 0.86041 0.42917
H_ H_ 0.362031 0.284136 0.85112 0.42917
H_ H_ 0.00610108 0.112758 0.770611 0.1146
H_ H_ -0.008781000000000039 0.354103 0.771694 0.1146
H_ H_ 0.244283 0.109165 0.765974 0.1146
H_ H_ 0.248539 0.358145 0.769483 0.1146
H_ H_ 0.0516371 0.0323008 0.801421 0.1146
H_ H_ 0.063575 0.291016 0.80599 0.1146
H_ H_ 0.305612 0.0391974 0.804281 0.1146
H_ H_ 0.314019 0.292236 0.805635 0.1146
H_ H_ 0.0188495 0.0176621 0.735604 0.1146
H_ H_ 0.0296334 0.271622 0.730337 0.1146
H_ H_ 0.272377 0.0204145 0.734029 0.1146
H_ H_ 0.27184 0.26873 0.734896 0.1146
H_ H_ 0.0485765 0.167083 0.944648 0.42917
H_ H_ 0.0526686 0.432049 0.955132 0.42917
H_ H_ 0.315033 0.177436 0.960451 0.42917
H_ H_ 0.309236 0.428316 0.964789 0.42917
H_ H_ 0.106 0.146919 0.936474 0.1146
H_ H_ 0.0942072 0.398013 0.939445 0.1146
H_ H_ 0.350334 0.142614 0.931132 0.1146
H_ H_ 0.346065 0.39592 0.942573 0.1146
H_ H_ 0.118226 0.194192 0.885549 0.1146
H_ H_ 0.144536 0.422805 0.898095 0.1146
H_ H_ 0.39315 0.168261 0.886206 0.1146
H_ H_ 0.393028 0.422821 0.897933 0.1146
H_ H_ 0.146285 0.17137 0.887098 0.1146
H_ H_ 0.141387 0.458311 0.93678 0.1146
H_ H_ 0.391185 0.204193 0.926305 0.1146
H_ H_ 0.391513 0.454097 0.940779 0.1146
H_ H_ 0.149073 0.206447 0.934923 0.1146
H_ H_ 0.121875 0.442402 0.881236 0.1146
H_ H_ 0.366717 0.189836 0.871516 0.1146
H_ H_ 0.369006 0.44678 0.891145 0.1146
H_ H_ 0.169638 0.0257638 0.597179 0.42917
H_ H_ 0.174419 0.275152 0.600692 0.42917
H_ H_ 0.423073 0.0297369 0.6017 0.42917
H_ H_ 0.429842 0.278888 0.592745 0.42917
H_ H_ 0.142483 0.136386 0.9768 0.1146
H_ H_ 0.13665 0.390636 0.980914 0.1146
H_ H_ 0.385829 0.137403 0.974324 0.1146
H_ H_ 0.388791 0.387267 0.979901 0.1146
H_ H_ 0.0177175 0.211357 0.942434 0.1146
H_ H_ 0.0100369 0.464169 0.939972 0.1146
H_ H_ 0.271784 0.2121 0.946797 0.1146
H_ H_ 0.260102 0.46528 0.945122 0.1146
H_ H_ 0.0125517 0.226074 0.526658 0.1146
H_ H_ 0.00363979 0.476023 0.518685 0.1146
H_ H_ 0.254686 0.226507 0.526462 0.1146
H_ H_ 0.251261 0.479805 0.519578 0.1146
H_ H_ 0.134972 0.123011 0.794693 0.42917
H_ H_ 0.128268 0.351349 0.791277 0.42917
H_ H_ 0.376467 0.127111 0.799494 0.42917
H_ H_ 0.382434 0.376036 0.816599 0.42917
H_ H_ 0.201284 0.125068 0.803154 0.1146
H_ H_ 0.197046 0.369737 0.808004 0.1146
H_ H_ 0.44368 0.125404 0.804281 0.1146
H_ H_ 0.452207 0.37516 0.808294 0.1146
H_ H_ 0.184997 0.0678639 0.827362 0.1146
H_ H_ 0.197356 0.316092 0.830409 0.1146
H_ H_ 0.399762 0.0690152 0.765081 0.1146
H_ H_ 0.427435 0.317782 0.770945 0.1146
H_ H_ 0.173129 0.063285 0.772907 0.1146
H_ H_ 0.170402 0.304098 0.779789 0.1146
H_ H_ 0.370564 0.0604527 0.810472 0.1146
H_ H_ 0.38969 0.308223 0.805473 0.1146
H_ H_ 0.134467 0.0574297 0.806571 0.1146
H_ H_ 0.145347 0.302071 0.827575 0.1146
H_ H_ 0.417169 0.0640347 0.808192 0.1146
H_ H_ 0.436971 0.315898 0.821673 0.1146
H_ H_ 0.127558 0.214482 0.62985 0.42917
H_ H_ 0.137058 0.463239 0.627429 0.42917
H_ H_ 0.385153 0.223991 0.631926 0.42917
H_ H_ 0.386103 0.465189 0.629827 0.42917
C_ C_ 0.23749 0.156151 0.723885 -0.12085
C_ C_ 0.240404 0.405626 0.724762 -0.12085
C_ C_ 0.485779 0.155469 0.725596 -0.12085
C_ C_ 0.487107 0.406411 0.726538 -0.12085
C_ C_ 0.0142556 0.197445 0.796792 0.6956
C_ C_ 0.0172742 0.446429 0.79905 0.6956
C_ C_ 0.26736 0.200565 0.798605 0.6956
C_ C_ 0.263472 0.446619 0.798546 0.6956
C_ C_ 0.243891 0.18774 0.755908 -0.16651
C_ C_ 0.242302 0.435531 0.755257 -0.16651
C_ C_ 0.488009 0.18731 0.759582 -0.16651
C_ C_ 0.492218 0.436635 0.759293 -0.16651
C_ C_ 0.203729 0.195915 0.705695 -0.12085
C_ C_ 0.205463 0.443435 0.702807 -0.12085
C_ C_ 0.456432 0.199753 0.70528 -0.12085
C_ C_ 0.454175 0.447561 0.709567 -0.12085
C_ C_ 0.218728 0.146743 0.682826 0.16698
C_ C_ 0.221675 0.395844 0.682656 0.16698
C_ C_ 0.46601 0.146906 0.6849 0.16698
C_ C_ 0.468825 0.398821 0.685589 0.16698
C_ C_ 0.17881 0.118429 0.625914 0.36401
C_ C_ 0.186409 0.368708 0.621913 0.36401
C_ C_ 0.433569 0.123681 0.623291 0.36401
C_ C_ 0.43481 0.373565 0.624594 0.36401
C_ C_ 0.200154 0.16543 0.67533 0.16698
C_ C_ 0.208346 0.416586 0.670899 0.16698
C_ C_ 0.447776 0.166754 0.678056 0.16698
C_ C_ 0.453238 0.420047 0.678321 0.16698
C_ C_ 0.226198 0.206746 0.744933 -0.12085
C_ C_ 0.221843 0.452877 0.744533 -0.12085
C_ C_ 0.471233 0.207325 0.749285 -0.12085
C_ C_ 0.474345 0.456418 0.750012 -0.12085
C_ C_ 0.150676 0.0881535 0.58807 0.15351
C_ C_ 0.15675 0.340324 0.586743 0.15351
C_ C_ 0.414343 0.0987832 0.579634 0.15351
C_ C_ 0.412082 0.3463 0.581198 0.15351
C_ C_ 0.1155 0.0615333 0.602509 -0.35079
C_ C_ 0.120323 0.317792 0.601252 -0.35079
C_ C_ 0.373864 0.0713406 0.583668 -0.35079
C_ C_ 0.376353 0.316958 0.589215 -0.35079
C_ C_ 0.0797354 0.101848 0.527208 -0.12085
C_ C_ 0.0806605 0.351452 0.524002 -0.12085
C_ C_ 0.328236 0.102146 0.528008 -0.12085
C_ C_ 0.329292 0.347281 0.52885 -0.12085
C_ C_ 0.065847 0.0582113 0.949937 0.6956
C_ C_ 0.061833 0.303311 0.947585 0.6956
C_ C_ 0.313348 0.0562979 0.946058 0.6956
C_ C_ 0.317497 0.307497 0.945714 0.6956
C_ C_ 0.053386 0.0715285 0.991411 -0.16651
C_ C_ 0.0504805 0.315073 0.990106 -0.16651
C_ C_ 0.30176 0.0685202 0.990287 -0.16651
C_ C_ 0.305945 0.320382 0.98954 -0.16651
C_ C_ 0.255914 0.0575285 0.547018 -0.12085
C_ C_ 0.258462 0.302399 0.549241 -0.12085
C_ C_ 0.507928 0.0566929 0.54539 -0.12085
C_ C_ 0.509472 0.30539 0.548242 -0.12085
C_ C_ 0.0659482 0.110202 0.567243 0.16698
C_ C_ 0.0676945 0.3595 0.563782 0.16698
C_ C_ 0.314819 0.1133 0.566661 0.16698
C_ C_ 0.318313 0.355322 0.569611 0.16698
C_ C_ 0.0612912 0.125113 0.633695 0.36401
C_ C_ 0.0660065 0.374283 0.630343 0.36401
C_ C_ 0.311894 0.128056 0.63431 0.36401
C_ C_ 0.314039 0.375166 0.636297 0.36401
C_ C_ 0.0312523 0.0876293 0.576434 0.16698
C_ C_ 0.033405 0.336531 0.57322 0.16698
C_ C_ 0.278255 0.0901634 0.575316 0.16698
C_ C_ 0.282793 0.335156 0.579355 0.16698
C_ C_ 0.0167635 0.0506823 0.00205893 -0.12085
C_ C_ 0.0164559 0.292702 0.00213196 -0.12085
C_ C_ 0.264268 0.0475376 0.0019599999999999618 -0.12085
C_ C_ 0.268237 0.299819 0.998684 -0.12085
C_ C_ 0.073642 0.142636 0.68048 0.15351
C_ C_ 0.0822349 0.38991 0.677824 0.15351
C_ C_ 0.327201 0.139415 0.678332 0.15351
C_ C_ 0.325204 0.396287 0.682542 0.15351
C_ C_ 0.0755085 0.176934 0.692868 -0.35079
C_ C_ 0.0938428 0.427976 0.696466 -0.35079
C_ C_ 0.344255 0.179326 0.698739 -0.35079
C_ C_ 0.325006 0.431249 0.691427 -0.35079
C_ C_ 0.0124858 0.0936665 0.775807 -0.12085
C_ C_ 0.00677793 0.34168 0.778344 -0.12085
C_ C_ 0.26 0.0942889 0.772904 -0.12085
C_ C_ 0.262764 0.345245 0.778324 -0.12085
C_ C_ 0.232563 0.0497128 0.697557 0.6956
C_ C_ 0.233424 0.299513 0.703255 0.6956
C_ C_ 0.486344 0.0563737 0.703008 0.6956
C_ C_ 0.482957 0.300961 0.700358 0.6956
C_ C_ 0.0069304 0.0622173 0.743566 -0.16651
C_ C_ 0.00781555 0.313312 0.745399 -0.16651
C_ C_ 0.254471 0.0619158 0.742004 -0.16651
C_ C_ 0.257556 0.312067 0.746597 -0.16651
C_ C_ 0.038117 0.0498419 0.796361 -0.12085
C_ C_ 0.0503873 0.305702 0.794538 -0.12085
C_ C_ 0.289909 0.0523278 0.79825 -0.12085
C_ C_ 0.297229 0.304438 0.797675 -0.12085
C_ C_ 0.0259262 0.0999495 0.819909 0.16698
C_ C_ 0.0308911 0.353235 0.81623 0.16698
C_ C_ 0.277432 0.101643 0.815907 0.16698
C_ C_ 0.285484 0.356922 0.816776 0.16698
C_ C_ 0.0678345 0.127881 0.877196 0.36401
C_ C_ 0.0634792 0.379733 0.877461 0.36401
C_ C_ 0.311523 0.126844 0.878452 0.36401
C_ C_ 0.315269 0.380336 0.879334 0.36401
C_ C_ 0.043359 0.0803442 0.828344 0.16698
C_ C_ 0.0520472 0.335866 0.824133 0.16698
C_ C_ 0.294782 0.082621 0.826472 0.16698
C_ C_ 0.303027 0.336927 0.825838 0.16698
C_ C_ 0.0222368 0.0425297 0.756511 -0.12085
C_ C_ 0.0286153 0.294777 0.753563 -0.12085
C_ C_ 0.273149 0.0433398 0.755582 -0.12085
C_ C_ 0.276056 0.292898 0.756852 -0.12085
C_ C_ 0.0931542 0.156365 0.917106 0.15351
C_ C_ 0.0867301 0.409998 0.91752 0.15351
C_ C_ 0.340711 0.156723 0.913401 0.15351
C_ C_ 0.336133 0.407693 0.920988 0.15351
C_ C_ 0.128235 0.18423 0.906006 -0.35079
C_ C_ 0.124946 0.436099 0.909011 -0.35079
C_ C_ 0.373978 0.180635 0.898474 -0.35079
C_ C_ 0.373341 0.434035 0.911282 -0.35079
C_ C_ 0.173215 0.151044 0.976151 -0.12085
C_ C_ 0.166082 0.401489 0.975999 -0.12085
C_ C_ 0.416947 0.150088 0.972771 -0.12085
C_ C_ 0.419819 0.399622 0.97578 -0.12085
C_ C_ 0.180143 0.194742 0.55162 0.6956
C_ C_ 0.194175 0.443964 0.551904 0.6956
C_ C_ 0.432728 0.196811 0.551144 0.6956
C_ C_ 0.435637 0.441347 0.551694 0.6956
C_ C_ 0.194286 0.184462 0.509037 -0.16651
C_ C_ 0.202169 0.43309 0.507184 -0.16651
C_ C_ 0.445676 0.184988 0.50771 -0.16651
C_ C_ 0.443357 0.429977 0.50695 -0.16651
C_ C_ 0.993029 0.194341 0.953561 -0.12085
C_ C_ 0.988772 0.445594 0.95253 -0.12085
C_ C_ 0.246293 0.194628 0.957329 -0.12085
C_ C_ 0.238442 0.445411 0.95561 -0.12085
C_ C_ 0.186893 0.140126 0.935664 0.16698
C_ C_ 0.181144 0.391111 0.935927 0.16698
C_ C_ 0.429564 0.137609 0.935075 0.16698
C_ C_ 0.431998 0.391125 0.934754 0.16698
C_ C_ 0.186845 0.129063 0.86717 0.36401
C_ C_ 0.186559 0.371351 0.87216 0.36401
C_ C_ 0.43195 0.125484 0.869225 0.36401
C_ C_ 0.436311 0.376801 0.869144 0.36401
C_ C_ 0.223414 0.161983 0.927883 0.16698
C_ C_ 0.218013 0.411756 0.929012 0.16698
C_ C_ 0.466278 0.157921 0.928664 0.16698
C_ C_ 0.469803 0.411069 0.926874 0.16698
C_ C_ 0.233743 0.203216 0.501961 -0.12085
C_ C_ 0.23651 0.455951 0.497786 -0.12085
C_ C_ 0.480296 0.208257 0.496583 -0.12085
C_ C_ 0.479318 0.451179 0.496145 -0.12085
C_ C_ 0.177036 0.111436 0.818965 0.15351
C_ C_ 0.175384 0.354426 0.824415 0.15351
C_ C_ 0.418304 0.114092 0.82098 0.15351
C_ C_ 0.426597 0.360201 0.821833 0.15351
C_ C_ 0.166385 0.0722622 0.804559 -0.35079
C_ C_ 0.172792 0.317699 0.8144 -0.35079
C_ C_ 0.3992 0.074073 0.798492 -0.35079
C_ C_ 0.42005 0.323455 0.802505 -0.35079
N_ N_ 0.203416 0.11433 0.651975 -0.51457
N_ N_ 0.208079 0.364447 0.652664 -0.51457
N_ N_ 0.457509 0.119 0.649734 -0.51457
N_ N_ 0.45833 0.36928 0.651437 -0.51457
N_ N_ 0.175629 0.149138 0.639932 -0.51457
N_ N_ 0.184267 0.400777 0.635304 -0.51457
N_ N_ 0.428369 0.154164 0.639198 -0.51457
N_ N_ 0.430359 0.404064 0.640387 -0.51457
N_ N_ 0.0871468 0.133956 0.604021 -0.51457
N_ N_ 0.0900488 0.383597 0.600327 -0.51457
N_ N_ 0.338082 0.137521 0.604276 -0.51457
N_ N_ 0.340096 0.38311 0.605808 -0.51457
N_ N_ 0.0267177 0.0959716 0.618046 -0.51457
N_ N_ 0.0313898 0.345525 0.615302 -0.51457
N_ N_ 0.275908 0.0995408 0.615865 -0.51457
N_ N_ 0.27807 0.346129 0.620537 -0.51457
N_ N_ 0.0416005 0.13177 0.851535 -0.51457
N_ N_ 0.038842 0.38178 0.85064 -0.51457
N_ N_ 0.287361 0.129946 0.850475 -0.51457
N_ N_ 0.292793 0.384791 0.850302 -0.51457
N_ N_ 0.0706692 0.0969091 0.863888 -0.51457
N_ N_ 0.0732143 0.351788 0.863536 -0.51457
N_ N_ 0.314378 0.0972538 0.865171 -0.51457
N_ N_ 0.321727 0.351763 0.86595 -0.51457
N_ N_ 0.163348 0.118694 0.897189 -0.51457
N_ N_ 0.160725 0.364151 0.90034 -0.51457
N_ N_ 0.406267 0.115923 0.89776 -0.51457
N_ N_ 0.409755 0.367486 0.898191 -0.51457
N_ N_ 0.22407 0.154726 0.885359 -0.51457
N_ N_ 0.222531 0.399714 0.888158 -0.51457
N_ N_ 0.468278 0.152745 0.886828 -0.51457
N_ N_ 0.472257 0.404636 0.885746 -0.51457
O_ O_ 0.0188411 0.226141 0.823409 -0.61362
O_ O_ 0.0143705 0.473039 0.82659 -0.61362
O_ O_ 0.269249 0.229233 0.82462 -0.61362
O_ O_ 0.269747 0.477429 0.82595 -0.61362
O_ O_ 0.0568794 0.215323 0.881272 -0.98607
O_ O_ 0.0569438 0.465457 0.880914 -0.98607
O_ O_ 0.307667 0.21765 0.881383 -0.98607
O_ O_ 0.301376 0.465884 0.884062 -0.98607
O_ O_ 0.0142877 0.17416 0.810193 -0.61362
O_ O_ 0.02494 0.424892 0.811574 -0.61362
O_ O_ 0.275699 0.17854 0.811411 -0.61362
O_ O_ 0.27255 0.425026 0.810332 -0.61362
O_ O_ 0.16754 0.0713333 0.564988 -0.55956
O_ O_ 0.172106 0.320754 0.565126 -0.55956
O_ O_ 0.434618 0.0842476 0.559799 -0.55956
O_ O_ 0.432608 0.333589 0.55981 -0.55956
O_ O_ 0.0461277 0.0262532 0.925599 -0.61362
O_ O_ 0.037779 0.272428 0.919902 -0.61362
O_ O_ 0.290914 0.0241536 0.917946 -0.61362
O_ O_ 0.293973 0.276438 0.919132 -0.61362
O_ O_ 0.0971809 0.0374671 0.870832 -0.98607
O_ O_ 0.0927862 0.284073 0.874871 -0.98607
O_ O_ 0.343504 0.0345182 0.866703 -0.98607
O_ O_ 0.3426 0.28699 0.864581 -0.98607
O_ O_ 0.0932734 0.0808865 0.935305 -0.61362
O_ O_ 0.0919234 0.32585 0.936525 -0.61362
O_ O_ 0.344423 0.0771378 0.935668 -0.61362
O_ O_ 0.350924 0.326788 0.936802 -0.61362
O_ O_ 0.103184 0.141844 0.700515 -0.55956
O_ O_ 0.110586 0.383386 0.687203 -0.55956
O_ O_ 0.357253 0.132838 0.685337 -0.55956
O_ O_ 0.360279 0.401749 0.697763 -0.55956
O_ O_ 0.231823 0.0216077 0.669803 -0.61362
O_ O_ 0.229761 0.270188 0.675606 -0.61362
O_ O_ 0.479387 0.0263925 0.6758 -0.61362
O_ O_ 0.473727 0.269101 0.674504 -0.61362
O_ O_ 0.188127 0.0313261 0.616806 -0.98607
O_ O_ 0.191402 0.280061 0.621605 -0.98607
O_ O_ 0.443798 0.0363694 0.619795 -0.98607
O_ O_ 0.444644 0.28558 0.615747 -0.98607
O_ O_ 0.218566 0.0688731 0.687265 -0.61362
O_ O_ 0.228472 0.322085 0.690495 -0.61362
O_ O_ 0.482878 0.0798701 0.689732 -0.61362
O_ O_ 0.481333 0.325178 0.687301 -0.61362
O_ O_ 0.0726417 0.169964 0.939089 -0.55956
O_ O_ 0.065912 0.42545 0.935235 -0.55956
O_ O_ 0.324188 0.174144 0.936202 -0.55956
O_ O_ 0.31508 0.420669 0.939899 -0.55956
O_ O_ 0.200815 0.225759 0.579811 -0.61362
O_ O_ 0.215144 0.476197 0.579116 -0.61362
O_ O_ 0.458174 0.22538 0.577279 -0.61362
O_ O_ 0.457427 0.473032 0.577153 -0.61362
O_ O_ 0.147601 0.210338 0.630852 -0.98607
O_ O_ 0.158541 0.460869 0.623802 -0.98607
O_ O_ 0.405041 0.218372 0.628065 -0.98607
O_ O_ 0.407343 0.462849 0.628191 -0.98607
O_ O_ 0.153634 0.171024 0.564887 -0.61362
O_ O_ 0.166306 0.420779 0.562861 -0.61362
O_ O_ 0.401824 0.174445 0.563988 -0.61362
O_ O_ 0.406663 0.419023 0.56443 -0.61362
O_ O_ 0.145872 0.112425 0.804844 -0.55956
O_ O_ 0.144122 0.354587 0.81168 -0.55956
O_ O_ 0.39386 0.125824 0.816215 -0.55956
O_ O_ 0.397266 0.365617 0.811719 -0.55956
Zn Zn 0.0246853 0.673369 0.361688 0.91541
Zn Zn 0.0265042 0.924701 0.363658 0.91541
Zn Zn 0.272557 0.672751 0.364455 0.91541
Zn Zn 0.275154 0.922181 0.362478 0.91541
Zn Zn 0.101726 0.579834 0.38658 0.91541
Zn Zn 0.103264 0.829599 0.384254 0.91541
Zn Zn 0.352347 0.580324 0.385485 0.91541
Zn Zn 0.357011 0.832548 0.386974 0.91541
Zn Zn 0.221034 0.572474 0.137332 0.91541
Zn Zn 0.222331 0.826406 0.134189 0.91541
Zn Zn 0.475977 0.578197 0.14192 0.91541
Zn Zn 0.476265 0.826763 0.137219 0.91541
Zn Zn 0.146012 0.670172 0.109112 0.91541
Zn Zn 0.14342 0.918475 0.113884 0.91541
Zn Zn 0.394378 0.670256 0.114956 0.91541
Zn Zn 0.397888 0.918321 0.114126 0.91541
Zn Zn 0.0531794 0.49966 0.372808 1.11764
Zn Zn 0.0498037 0.749292 0.373913 1.11764
Zn Zn 0.302596 0.49974 0.370609 1.11764
Zn Zn 0.305771 0.754471 0.375885 1.11764
Zn Zn 0.196113 0.995932 0.124938 1.11764
Zn Zn 0.19907 0.750346 0.123247 1.11764
Zn Zn 0.449097 -0.0030879999999999797 0.12632 1.11764
Zn Zn 0.446895 0.747312 0.124538 1.11764
H_ H_ 0.247902 0.638745 0.230604 0.1146
H_ H_ 0.255705 0.891139 0.223712 0.1146
H_ H_ 0.491247 0.634552 0.233469 0.1146
H_ H_ 0.502647 0.889479 0.229512 0.1146
H_ H_ 0.185898 0.706523 0.196537 0.1146
H_ H_ 0.20498 0.96296 0.187657 0.1146
H_ H_ 0.441853 0.708195 0.195549 0.1146
H_ H_ 0.433638 0.953121 0.195547 0.1146
H_ H_ 0.228702 0.729357 0.263787 0.1146
H_ H_ 0.240175 0.982142 0.264565 0.1146
H_ H_ 0.469096 0.723551 0.269593 0.1146
H_ H_ 0.466445 0.970712 0.268903 0.1146
H_ H_ 0.182225 0.570923 0.0317639 0.42917
H_ H_ 0.242696 0.879862 0.0591622 0.42917
H_ H_ 0.435487 0.571269 0.0387679 0.42917
H_ H_ 0.43388 0.814493 0.0369981 0.42917
H_ H_ 0.154666 0.609438 0.0619179 0.1146
H_ H_ 0.167889 0.868178 0.0512475 0.1146
H_ H_ 0.397252 0.602267 0.0615811 0.1146
H_ H_ 0.39946 0.851064 0.0627902 0.1146
H_ H_ 0.102085 0.577298 0.105429 0.1146
H_ H_ 0.156473 0.811924 0.0155457 0.1146
H_ H_ 0.355116 0.58283 0.113759 0.1146
H_ H_ 0.344022 0.815719 0.0964805 0.1146
H_ H_ 0.099259 0.549214 0.0528119 0.1146
H_ H_ 0.17823 0.807281 0.0594415 0.1146
H_ H_ 0.351478 0.54866 0.0640073 0.1146
H_ H_ 0.355883 0.785902 0.0583174 0.1146
H_ H_ 0.122708 0.548665 0.0988821 0.1146
H_ H_ 0.133032 0.811836 0.0658425 0.1146
H_ H_ 0.375836 0.556803 0.116835 0.1146
H_ H_ 0.377635 0.799755 0.110434 0.1146
H_ H_ 0.0784022 0.724164 0.400552 0.42917
H_ H_ 0.0767711 0.973718 0.402522 0.42917
H_ H_ 0.329511 0.719844 0.390922 0.42917
H_ H_ 0.329901 0.974977 0.398146 0.42917
H_ H_ 0.108918 0.610685 0.0243831 0.1146
H_ H_ 0.110744 0.860443 0.0288104 0.1146
H_ H_ 0.355935 0.616616 0.021335 0.1146
H_ H_ 0.356913 0.858591 0.0208965 0.1146
H_ H_ 0.232652 0.533135 0.0544148 0.1146
H_ H_ 0.234142 0.785279 0.0580711 0.1146
H_ H_ 0.490422 0.533963 0.0651456 0.1146
H_ H_ 0.482448 0.787446 0.0495491 0.1146
H_ H_ 0.245631 0.522867 0.478804 0.1146
H_ H_ 0.247487 0.769784 0.479435 0.1146
H_ H_ 0.494055 0.524423 0.483117 0.1146
H_ H_ 0.492383 0.77 0.481887 0.1146
H_ H_ 0.118914 0.620943 0.179911 0.42917
H_ H_ 0.0965493 0.852951 0.181343 0.42917
H_ H_ 0.371214 0.638574 0.183264 0.42917
H_ H_ 0.368535 0.871807 0.191136 0.42917
H_ H_ 0.0514281 0.62744 0.197541 0.1146
H_ H_ 0.047059 0.878776 0.195765 0.1146
H_ H_ 0.290965 0.627302 0.193221 0.1146
H_ H_ 0.30419 0.874228 0.198185 0.1146
H_ H_ 0.115631 0.692538 0.189948 0.1146
H_ H_ 0.0883661 0.941771 0.192169 0.1146
H_ H_ 0.317985 0.683403 0.224587 0.1146
H_ H_ 0.326975 0.933824 0.230663 0.1146
H_ H_ 0.0674841 0.687769 0.199057 0.1146
H_ H_ 0.0984094 0.928709 0.237059 0.1146
H_ H_ 0.358231 0.697048 0.192395 0.1146
H_ H_ 0.364423 0.943732 0.197623 0.1146
H_ H_ 0.0967637 0.684222 0.237064 0.1146
H_ H_ 0.128893 0.927486 0.189932 0.1146
H_ H_ 0.305593 0.684381 0.173952 0.1146
H_ H_ 0.318081 0.933767 0.180549 0.1146
H_ H_ 0.115315 0.533366 0.373875 0.42917
H_ H_ 0.110232 0.781237 0.36164 0.42917
H_ H_ 0.361842 0.531427 0.354754 0.42917
H_ H_ 0.363312 0.782884 0.357114 0.42917
H_ H_ 0.997576 0.610485 0.272023 0.1146
H_ H_ 1.00586 0.863683 0.268819 0.1146
H_ H_ 0.241911 0.609412 0.277808 0.1146
H_ H_ 0.251342 0.861265 0.267566 0.1146
H_ H_ 0.0583566 0.540206 0.308144 0.1146
H_ H_ 0.0682386 0.79656 0.304592 0.1146
H_ H_ 0.294926 0.535569 0.312995 0.1146
H_ H_ 0.32252 0.797142 0.297935 0.1146
H_ H_ 0.0175423 0.518107 0.233549 0.1146
H_ H_ 0.0246514 0.772369 0.235413 0.1146
H_ H_ 0.270435 0.519103 0.238937 0.1146
H_ H_ 0.278137 0.772223 0.231138 0.1146
H_ H_ 0.0762757 0.685089 0.458603 0.42917
H_ H_ 0.0623597 0.933565 0.457554 0.42917
H_ H_ 0.301459 0.674259 0.450175 0.42917
H_ H_ 0.306081 0.920891 0.461638 0.42917
H_ H_ 0.109985 0.649719 0.430278 0.1146
H_ H_ 0.0997744 0.899957 0.439093 0.1146
H_ H_ 0.345035 0.64443 0.439891 0.1146
H_ H_ 0.352588 0.898414 0.442301 0.1146
H_ H_ 0.120674 0.691891 0.369492 0.1146
H_ H_ 0.154794 0.952656 0.435866 0.1146
H_ H_ 0.400274 0.673976 0.395197 0.1146
H_ H_ 0.368046 0.945375 0.385744 0.1146
H_ H_ 0.153067 0.676124 0.386201 0.1146
H_ H_ 0.129802 0.95094 0.386689 0.1146
H_ H_ 0.394423 0.703115 0.44272 0.1146
H_ H_ 0.398426 0.927951 0.402431 0.1146
H_ H_ 0.144774 0.705819 0.423582 0.1146
H_ H_ 0.143328 0.917847 0.382028 0.1146
H_ H_ 0.370097 0.693503 0.387261 0.1146
H_ H_ 0.39546 0.961668 0.44028 0.1146
H_ H_ 0.163886 0.524927 0.112528 0.42917
H_ H_ 0.166535 0.773958 0.103638 0.42917
H_ H_ 0.42303 0.528875 0.101161 0.42917
H_ H_ 0.428036 0.775396 0.0934197 0.42917
H_ H_ 0.14139 0.637094 0.477796 0.1146
H_ H_ 0.136277 0.88716 0.478538 0.1146
H_ H_ 0.391605 0.635465 0.479918 0.1146
H_ H_ 0.398438 0.884976 0.48311 0.1146
H_ H_ 0.0196917 0.71215 0.449099 0.1146
H_ H_ 0.0150426 0.96554 0.441116 0.1146
H_ H_ 0.26996 0.707452 0.43883 0.1146
H_ H_ 0.272215 0.957069 0.455741 0.1146
H_ H_ 1.00184009 0.732066 0.0203842 0.1146
H_ H_ 0.00623834 0.983933 0.0184905 0.1146
H_ H_ 0.252798 0.728315 0.0154922 0.1146
H_ H_ 0.248992 0.975732 0.0149174 0.1146
H_ H_ 0.117174 0.610971 0.289693 0.42917
H_ H_ 0.123763 0.851317 0.302474 0.42917
H_ H_ 0.37277 0.621583 0.303156 0.42917
H_ H_ 0.388722 0.885024 0.31293 0.42917
H_ H_ 0.190599 0.623122 0.297611 0.1146
H_ H_ 0.197497 0.868517 0.306803 0.1146
H_ H_ 0.44429 0.624904 0.30291 0.1146
H_ H_ 0.45151 0.877578 0.305178 0.1146
H_ H_ 0.172912 0.562908 0.313498 0.1146
H_ H_ 0.180152 0.802275 0.276176 0.1146
H_ H_ 0.414907 0.56076 0.312465 0.1146
H_ H_ 0.388951 0.810541 0.308465 0.1146
H_ H_ 0.151356 0.561965 0.266278 0.1146
H_ H_ 0.169015 0.802738 0.331165 0.1146
H_ H_ 0.41017 0.56983 0.262369 0.1146
H_ H_ 0.43904 0.820205 0.301529 0.1146
H_ H_ 0.122812 0.55533 0.307903 0.1146
H_ H_ 0.213196 0.825251 0.325056 0.1146
H_ H_ 0.369102 0.559434 0.295185 0.1146
H_ H_ 0.403623 0.819786 0.261331 0.1146
H_ H_ 0.143964 0.721073 0.140384 0.42917
H_ H_ 0.141575 0.970346 0.150609 0.42917
H_ H_ 0.385105 0.719316 0.129796 0.42917
H_ H_ 0.385921 0.963757 0.137575 0.42917
C_ C_ 0.240144 0.65632 0.222473 -0.12085
C_ C_ 0.237085 0.90427 0.220892 -0.12085
C_ C_ 0.484581 0.652303 0.224897 -0.12085
C_ C_ 0.491587 0.904437 0.221202 -0.12085
C_ C_ 0.0153921 0.699274 0.295571 0.6956
C_ C_ 0.0142619 0.948072 0.299254 0.6956
C_ C_ 0.259552 0.697102 0.298831 0.6956
C_ C_ 0.261632 0.945876 0.29759 0.6956
C_ C_ 0.242498 0.686369 0.252914 -0.16651
C_ C_ 0.240607 0.934532 0.254816 -0.16651
C_ C_ 0.488096 0.682936 0.257583 -0.16651
C_ C_ 0.494013 0.934915 0.253477 -0.16651
C_ C_ 0.202594 0.69356 0.201634 -0.12085
C_ C_ 0.205855 0.944656 0.201012 -0.12085
C_ C_ 0.458512 0.696332 0.204418 -0.12085
C_ C_ 0.452969 0.942424 0.201962 -0.12085
C_ C_ 0.216119 0.644663 0.181554 0.16698
C_ C_ 0.209441 0.891289 0.184348 0.16698
C_ C_ 0.470346 0.64587 0.182527 0.16698
C_ C_ 0.468725 0.893719 0.181108 0.16698
C_ C_ 0.182113 0.620148 0.120139 0.36401
C_ C_ 0.185361 0.87241 0.117392 0.36401
C_ C_ 0.43543 0.62193 0.120413 0.36401
C_ C_ 0.430366 0.86632 0.12284 0.36401
C_ C_ 0.200039 0.664538 0.172171 0.16698
C_ C_ 0.194328 0.912126 0.175598 0.16698
C_ C_ 0.455065 0.666232 0.173003 0.16698
C_ C_ 0.451342 0.912665 0.171039 0.16698
C_ C_ 0.224198 0.705579 0.241812 -0.12085
C_ C_ 0.229363 0.956946 0.240867 -0.12085
C_ C_ 0.472189 0.703384 0.245995 -0.12085
C_ C_ 0.470582 0.951628 0.242952 -0.12085
C_ C_ 0.15839 0.593267 0.0793035 0.15351
C_ C_ 0.184221 0.858684 0.0689593 0.15351
C_ C_ 0.40804 0.59147 0.0817517 0.15351
C_ C_ 0.407732 0.837555 0.0811398 0.15351
C_ C_ 0.118777 0.565637 0.0837056 -0.35079
C_ C_ 0.160517 0.819405 0.0507176 -0.35079
C_ C_ 0.37066 0.567783 0.0927781 -0.35079
C_ C_ 0.368684 0.808636 0.0879537 -0.35079
C_ C_ 0.0797771 0.594752 0.0274907 -0.12085
C_ C_ 0.0794102 0.845344 0.0284377 -0.12085
C_ C_ 0.329534 0.597593 0.0265648 -0.12085
C_ C_ 0.326667 0.844586 0.0251084 -0.12085
C_ C_ 0.064431 0.548666 0.448476 0.6956
C_ C_ 0.0598172 0.80512 0.445366 0.6956
C_ C_ 0.313327 0.553224 0.447627 0.6956
C_ C_ 0.313612 0.805698 0.447731 0.6956
C_ C_ 0.0539071 0.561343 0.492236 -0.16651
C_ C_ 0.0500572 0.817282 0.490524 -0.16651
C_ C_ 0.302695 0.564454 0.49205 -0.16651
C_ C_ 0.300309 0.817936 0.491177 -0.16651
C_ C_ 0.259277 0.552385 0.0469409 -0.12085
C_ C_ 0.254916 0.802849 0.0458103 -0.12085
C_ C_ 0.506416 0.553665 0.0498281 -0.12085
C_ C_ 0.507806 0.805789 0.0411172 -0.12085
C_ C_ 0.0652016 0.606999 0.0653654 0.16698
C_ C_ 0.0645568 0.857535 0.0658257 0.16698
C_ C_ 0.31446 0.60714 0.0668246 0.16698
C_ C_ 0.316503 0.855629 0.065623 0.16698
C_ C_ 0.063134 0.624597 0.132166 0.36401
C_ C_ 0.0605101 0.874179 0.131606 0.36401
C_ C_ 0.308573 0.624425 0.132173 0.36401
C_ C_ 0.314161 0.873256 0.133058 0.36401
C_ C_ 0.0309228 0.5858 0.0733231 0.16698
C_ C_ 0.0265416 0.837693 0.0721327 0.16698
C_ C_ 0.278478 0.584365 0.0735282 0.16698
C_ C_ 0.27973 0.835187 0.0741733 0.16698
C_ C_ 0.0179323 0.53964 0.503661 -0.12085
C_ C_ 0.0152861 0.795096 0.501808 -0.12085
C_ C_ 0.266192 0.545798 0.501387 -0.12085
C_ C_ 0.265917 0.795344 0.503063 -0.12085
C_ C_ 0.077874 0.63897 0.180736 0.15351
C_ C_ 0.0733887 0.885792 0.178018 0.15351
C_ C_ 0.319668 0.641242 0.179562 0.15351
C_ C_ 0.327822 0.887901 0.181094 0.15351
C_ C_ 0.0892839 0.677511 0.202638 -0.35079
C_ C_ 0.100696 0.92363 0.200534 -0.35079
C_ C_ 0.326519 0.67816 0.19226 -0.35079
C_ C_ 0.335738 0.925785 0.197501 -0.35079
C_ C_ 0.00659768 0.591412 0.278286 -0.12085
C_ C_ 0.0134428 0.84505 0.276711 -0.12085
C_ C_ 0.256551 0.594123 0.281991 -0.12085
C_ C_ 0.267819 0.846823 0.272574 -0.12085
C_ C_ 0.231877 0.550253 0.205147 0.6956
C_ C_ 0.240665 0.802944 0.197402 0.6956
C_ C_ 0.481824 0.551064 0.20377 0.6956
C_ C_ 0.485537 0.803628 0.203443 0.6956
C_ C_ 0.00169674 0.559872 0.247211 -0.16651
C_ C_ 0.0084709 0.814337 0.245756 -0.16651
C_ C_ 0.251959 0.562158 0.249671 -0.16651
C_ C_ 0.262137 0.814967 0.241506 -0.16651
C_ C_ 0.0408149 0.552128 0.299784 -0.12085
C_ C_ 0.0456226 0.805081 0.298217 -0.12085
C_ C_ 0.285129 0.55161 0.30314 -0.12085
C_ C_ 0.303186 0.808092 0.293406 -0.12085
C_ C_ 0.024109 0.600707 0.319836 0.16698
C_ C_ 0.0288804 0.852948 0.319623 0.16698
C_ C_ 0.273478 0.601545 0.323995 0.16698
C_ C_ 0.287377 0.857032 0.315759 0.16698
C_ C_ 0.0691808 0.629931 0.374891 0.36401
C_ C_ 0.0680572 0.882263 0.377756 0.36401
C_ C_ 0.313394 0.629277 0.380949 0.36401
C_ C_ 0.316908 0.880166 0.381393 0.36401
C_ C_ 0.0399567 0.581008 0.329946 0.16698
C_ C_ 0.0430634 0.832177 0.330606 0.16698
C_ C_ 0.287634 0.580496 0.333061 0.16698
C_ C_ 0.304006 0.837353 0.324597 0.16698
C_ C_ 0.020529 0.541073 0.257921 -0.12085
C_ C_ 0.026971 0.795162 0.256609 -0.12085
C_ C_ 0.267349 0.541143 0.262062 -0.12085
C_ C_ 0.280966 0.796425 0.253235 -0.12085
C_ C_ 0.0971062 0.659639 0.41043 0.15351
C_ C_ 0.0939525 0.911979 0.415926 0.15351
C_ C_ 0.340134 0.657754 0.417872 0.15351
C_ C_ 0.341961 0.908795 0.420868 0.15351
C_ C_ 0.13013 0.685192 0.394526 -0.35079
C_ C_ 0.133735 0.935152 0.403702 -0.35079
C_ C_ 0.378586 0.683074 0.409548 -0.35079
C_ C_ 0.377441 0.938327 0.41255 -0.35079
C_ C_ 0.171219 0.652193 0.471513 -0.12085
C_ C_ 0.166393 0.900414 0.474054 -0.12085
C_ C_ 0.422819 0.647704 0.475323 -0.12085
C_ C_ 0.424748 0.902736 0.477046 -0.12085
C_ C_ 0.187866 0.693878 0.052096 0.6956
C_ C_ 0.185356 0.941514 0.0485391 0.6956
C_ C_ 0.435928 0.693579 0.0529396 0.6956
C_ C_ 0.43253 0.941623 0.0508124 0.6956
C_ C_ 0.200406 0.681506 0.00886208 -0.16651
C_ C_ 0.194675 0.930393 0.00293994 -0.16651
C_ C_ 0.445069 0.682942 0.00802691 -0.16651
C_ C_ 0.44361 0.931363 0.00580887 -0.16651
C_ C_ 0.996212 0.692882 0.458097 -0.12085
C_ C_ 0.990192 0.947963 0.451653 -0.12085
C_ C_ 0.2411 0.693726 0.44843 -0.12085
C_ C_ 0.244043 0.93967 0.459838 -0.12085
C_ C_ 0.181139 0.640013 0.431094 0.16698
C_ C_ 0.17999 0.890063 0.435202 0.16698
C_ C_ 0.435207 0.638553 0.434281 0.16698
C_ C_ 0.43808 0.89275 0.436882 0.16698
C_ C_ 0.181695 0.624756 0.364733 0.36401
C_ C_ 0.186078 0.872928 0.36868 0.36401
C_ C_ 0.435589 0.6251 0.367153 0.36401
C_ C_ 0.439381 0.877534 0.369955 0.36401
C_ C_ 0.217071 0.660546 0.421247 0.16698
C_ C_ 0.217981 0.910082 0.428212 0.16698
C_ C_ 0.471811 0.658263 0.426414 0.16698
C_ C_ 0.473148 0.915004 0.428433 0.16698
C_ C_ 0.234429 0.702776 0.995469 -0.12085
C_ C_ 0.229 0.951195 0.990801 -0.12085
C_ C_ 0.479576 0.705621 0.996604 -0.12085
C_ C_ 0.481524 0.951734 0.997344 -0.12085
C_ C_ 0.166154 0.610392 0.316586 0.15351
C_ C_ 0.175594 0.851349 0.321447 0.15351
C_ C_ 0.421186 0.613106 0.320851 0.15351
C_ C_ 0.426781 0.863768 0.32033 0.15351
C_ C_ 0.1518 0.571161 0.299539 -0.35079
C_ C_ 0.182537 0.818229 0.310313 -0.35079
C_ C_ 0.402649 0.574537 0.296495 -0.35079
C_ C_ 0.415127 0.826502 0.295816 -0.35079
N_ N_ 0.204115 0.614043 0.149844 -0.51457
N_ N_ 0.203365 0.864931 0.147491 -0.51457
N_ N_ 0.45624 0.615884 0.148639 -0.51457
N_ N_ 0.455583 0.86274 0.14925 -0.51457
N_ N_ 0.175843 0.648578 0.134334 -0.51457
N_ N_ 0.17847 0.900715 0.133746 -0.51457
N_ N_ 0.431625 0.651993 0.134527 -0.51457
N_ N_ 0.428313 0.896981 0.135111 -0.51457
N_ N_ 0.087149 0.633041 0.101862 -0.51457
N_ N_ 0.0868174 0.882664 0.103208 -0.51457
N_ N_ 0.335819 0.633266 0.103667 -0.51457
N_ N_ 0.340438 0.879282 0.1025 -0.51457
N_ N_ 0.0266775 0.595687 0.115424 -0.51457
N_ N_ 0.0249943 0.846086 0.114756 -0.51457
N_ N_ 0.274016 0.594451 0.114723 -0.51457
N_ N_ 0.276489 0.846253 0.115296 -0.51457
N_ N_ 0.0430114 0.634179 0.348047 -0.51457
N_ N_ 0.0447221 0.8856 0.349722 -0.51457
N_ N_ 0.28728 0.63208 0.355249 -0.51457
N_ N_ 0.296175 0.885861 0.352128 -0.51457
N_ N_ 0.066769 0.596914 0.365244 -0.51457
N_ N_ 0.0699456 0.850583 0.36641 -0.51457
N_ N_ 0.317406 0.599151 0.36733 -0.51457
N_ N_ 0.323325 0.850545 0.365166 -0.51457
N_ N_ 0.158434 0.614898 0.394803 -0.51457
N_ N_ 0.158117 0.865159 0.397185 -0.51457
N_ N_ 0.410332 0.616422 0.396476 -0.51457
N_ N_ 0.414873 0.867548 0.400178 -0.51457
N_ N_ 0.216365 0.65402 0.379182 -0.51457
N_ N_ 0.221287 0.900513 0.385813 -0.51457
N_ N_ 0.472755 0.649875 0.38496 -0.51457
N_ N_ 0.474413 0.905991 0.387365 -0.51457
O_ O_ 0.0241116 0.730965 0.322277 -0.61362
O_ O_ 0.0250485 0.98002 0.324833 -0.61362
O_ O_ 0.27867 0.729925 0.323108 -0.61362
O_ O_ 0.276886 0.97868 0.324138 -0.61362
O_ O_ 0.0574195 0.717256 0.381814 -0.98607
O_ O_ 0.0555725 0.968516 0.385783 -0.98607
O_ O_ 0.305932 0.717096 0.382078 -0.98607
O_ O_ 0.308209 0.967996 0.383195 -0.98607
O_ O_ 0.0163446 0.675923 0.309194 -0.61362
O_ O_ 0.0191604 0.925085 0.311264 -0.61362
O_ O_ 0.263106 0.673462 0.310958 -0.61362
O_ O_ 0.266392 0.923139 0.3092 -0.61362
O_ O_ 0.17928 0.579643 0.0582984 -0.55956
O_ O_ 0.218423 0.865048 0.056283 -0.55956
O_ O_ 0.426643 0.574317 0.0619264 -0.55956
O_ O_ 0.428265 0.824028 0.0615881 -0.55956
O_ O_ 0.0403166 0.519407 0.42137 -0.61362
O_ O_ 0.0352662 0.774559 0.416762 -0.61362
O_ O_ 0.293043 0.521386 0.420074 -0.61362
O_ O_ 0.291538 0.77458 0.42266 -0.61362
O_ O_ 0.095242 0.537439 0.375135 -0.98607
O_ O_ 0.0914084 0.786497 0.37294 -0.98607
O_ O_ 0.343997 0.536265 0.366772 -0.98607
O_ O_ 0.34617 0.78902 0.369671 -0.98607
O_ O_ 0.0927764 0.57231 0.43636 -0.61362
O_ O_ 0.0944417 0.824866 0.437296 -0.61362
O_ O_ 0.335625 0.578204 0.433804 -0.61362
O_ O_ 0.345524 0.82671 0.435708 -0.61362
O_ O_ 0.105682 0.632188 0.189484 -0.55956
O_ O_ 0.0935019 0.870597 0.1841 -0.55956
O_ O_ 0.349506 0.638538 0.192817 -0.55956
O_ O_ 0.358686 0.885722 0.191005 -0.55956
O_ O_ 0.220266 0.518422 0.181602 -0.61362
O_ O_ 0.227438 0.770402 0.174127 -0.61362
O_ O_ 0.472373 0.519152 0.176622 -0.61362
O_ O_ 0.474424 0.770737 0.178167 -0.61362
O_ O_ 0.188362 0.530045 0.120472 -0.98607
O_ O_ 0.190194 0.780935 0.118301 -0.98607
O_ O_ 0.444834 0.534204 0.116788 -0.98607
O_ O_ 0.442338 0.781289 0.117698 -0.98607
O_ O_ 0.222508 0.571574 0.19195 -0.61362
O_ O_ 0.236653 0.82517 0.18308 -0.61362
O_ O_ 0.473853 0.573785 0.192999 -0.61362
O_ O_ 0.486267 0.826502 0.186701 -0.61362
O_ O_ 0.0795282 0.676449 0.432626 -0.55956
O_ O_ 0.0744476 0.928156 0.437566 -0.55956
O_ O_ 0.321434 0.675359 0.43737 -0.55956
O_ O_ 0.320274 0.921314 0.441176 -0.55956
O_ O_ 0.211228 0.723687 0.0793405 -0.61362
O_ O_ 0.208238 0.973114 0.0753282 -0.61362
O_ O_ 0.45796 0.723144 0.0795777 -0.61362
O_ O_ 0.45817 0.970238 0.0793825 -0.61362
O_ O_ 0.160656 0.714712 0.129104 -0.98607
O_ O_ 0.157097 0.965051 0.136432 -0.98607
O_ O_ 0.40434 0.714189 0.12452 -0.98607
O_ O_ 0.407974 0.962161 0.131041 -0.98607
O_ O_ 0.151773 0.676133 0.0600594 -0.61362
O_ O_ 0.151973 0.924061 0.0613816 -0.61362
O_ O_ 0.405909 0.670875 0.0643507 -0.61362
O_ O_ 0.4053 0.918789 0.0632248 -0.61362
O_ O_ 0.137942 0.616871 0.307045 -0.55956
O_ O_ 0.140733 0.843108 0.305388 -0.55956
O_ O_ 0.394401 0.62298 0.315551 -0.55956
O_ O_ 0.396862 0.869212 0.312584 -0.55956
Zn Zn 0.0248601 0.673286 0.863307 0.91541
Zn Zn 0.0261789 0.924504 0.863108 0.91541
Zn Zn 0.272916 0.672964 0.862756 0.91541
Zn Zn 0.269627 0.918875 0.86012 0.91541
Zn Zn 0.102673 0.579349 0.884575 0.91541
Zn Zn 0.0999341 0.830175 0.884683 0.91541
Zn Zn 0.351109 0.5795 0.884613 0.91541
Zn Zn 0.351712 0.828561 0.886177 0.91541
Zn Zn 0.22895 0.577085 0.635389 0.91541
Zn Zn 0.222552 0.825192 0.633295 0.91541
Zn Zn 0.47741 0.573998 0.636074 0.91541
Zn Zn 0.473619 0.826405 0.633013 0.91541
Zn Zn 0.148204 0.666799 0.608925 0.91541
Zn Zn 0.142243 0.918534 0.612191 0.91541
Zn Zn 0.396808 0.667896 0.613356 0.91541
Zn Zn 0.394231 0.918989 0.614461 0.91541
Zn Zn 0.0513873 0.499366 0.872458 1.11764
Zn Zn 0.0544947 0.753455 0.873505 1.11764
Zn Zn 0.301102 0.502114 0.877674 1.11764
Zn Zn 0.3037 0.750768 0.873287 1.11764
Zn Zn 0.191759 0.996208 0.625556 1.11764
Zn Zn 0.194333 0.747093 0.619286 1.11764
Zn Zn 0.445414 0.999836 0.626298 1.11764
Zn Zn 0.446631 0.748069 0.625959 1.11764
H_ H_ 0.249423 0.636423 0.731289 0.1146
H_ H_ 0.250228 0.888127 0.723682 0.1146
H_ H_ 0.496251 0.633912 0.72792 0.1146
H_ H_ 0.509247 0.895126 0.728672 0.1146
H_ H_ 0.190817 0.706825 0.687094 0.1146
H_ H_ 0.199822 0.962952 0.683627 0.1146
H_ H_ 0.445091 0.706294 0.688148 0.1146
H_ H_ 0.444704 0.964979 0.697676 0.1146
H_ H_ 0.223121 0.724667 0.763167 0.1146
H_ H_ 0.230838 0.979704 0.75843 0.1146
H_ H_ 0.487153 0.728887 0.760849 0.1146
H_ H_ 0.473267 0.97894 0.769684 0.1146
H_ H_ 0.195801 0.576274 0.526066 0.42917
H_ H_ 0.173169 0.807663 0.538405 0.42917
H_ H_ 0.434009 0.562757 0.535662 0.42917
H_ H_ 0.43739 0.822754 0.536373 0.42917
H_ H_ 0.157789 0.606682 0.552006 0.1146
H_ H_ 0.137478 0.847076 0.562132 0.1146
H_ H_ 0.402509 0.601635 0.556777 0.1146
H_ H_ 0.399488 0.85562 0.560582 0.1146
H_ H_ 0.135816 0.546518 0.592581 0.1146
H_ H_ 0.129005 0.806546 0.62468 0.1146
H_ H_ 0.346042 0.549415 0.562314 0.1146
H_ H_ 0.373312 0.796315 0.599822 0.1146
H_ H_ 0.108063 0.570034 0.589264 0.1146
H_ H_ 0.0907019 0.812651 0.600983 0.1146
H_ H_ 0.372962 0.54993 0.608425 0.1146
H_ H_ 0.350086 0.825702 0.608965 0.1146
H_ H_ 0.113844 0.539367 0.544205 0.1146
H_ H_ 0.108202 0.779722 0.575317 0.1146
H_ H_ 0.351792 0.580683 0.610172 0.1146
H_ H_ 0.350141 0.798416 0.556751 0.1146
H_ H_ 0.0820153 0.723913 0.889278 0.42917
H_ H_ 0.0833609 0.974101 0.890859 0.42917
H_ H_ 0.328378 0.720358 0.899969 0.42917
H_ H_ 0.320609 0.965434 0.896389 0.42917
H_ H_ 0.10734 0.607561 0.514651 0.1146
H_ H_ 0.106615 0.862296 0.522352 0.1146
H_ H_ 0.35798 0.608054 0.518101 0.1146
H_ H_ 0.357437 0.864873 0.520823 0.1146
H_ H_ 0.228438 0.538292 0.552124 0.1146
H_ H_ 0.22503 0.790837 0.550629 0.1146
H_ H_ 0.481684 0.535766 0.556611 0.1146
H_ H_ 0.480226 0.788765 0.552542 0.1146
H_ H_ 0.24898 0.519301 0.981085 0.1146
H_ H_ 0.241069 0.774863 0.976602 0.1146
H_ H_ 0.501661 0.516084 0.987533 0.1146
H_ H_ 0.503651 0.773062 0.978203 0.1146
H_ H_ 0.126826 0.650613 0.70294 0.42917
H_ H_ 0.130923 0.88781 0.695201 0.42917
H_ H_ 0.382811 0.644782 0.704856 0.42917
H_ H_ 0.373471 0.879766 0.682067 0.42917
H_ H_ 0.0550666 0.630388 0.694103 0.1146
H_ H_ 0.0506219 0.869391 0.69184 0.1146
H_ H_ 0.310715 0.629621 0.695661 0.1146
H_ H_ 0.29676 0.87475 0.691151 0.1146
H_ H_ 0.0457418 0.681314 0.680671 0.1146
H_ H_ 0.0899704 0.931936 0.72591 0.1146
H_ H_ 0.326103 0.686481 0.724484 0.1146
H_ H_ 0.335988 0.938182 0.730961 0.1146
H_ H_ 0.0729674 0.690631 0.728842 0.1146
H_ H_ 0.119652 0.933276 0.686014 0.1146
H_ H_ 0.359199 0.700765 0.690477 0.1146
H_ H_ 0.367131 0.939314 0.689794 0.1146
H_ H_ 0.100356 0.703565 0.689528 0.1146
H_ H_ 0.0725336 0.931538 0.676076 0.1146
H_ H_ 0.304777 0.678171 0.671437 0.1146
H_ H_ 0.315725 0.928752 0.677685 0.1146
H_ H_ 0.107315 0.527385 0.854321 0.42917
H_ H_ 0.11783 0.789294 0.861221 0.42917
H_ H_ 0.362692 0.533012 0.866597 0.42917
H_ H_ 0.355645 0.778804 0.851511 0.42917
H_ H_ 0.998178 0.611069 0.772687 0.1146
H_ H_ -0.003010999999999986 0.858531 0.76485 0.1146
H_ H_ 0.247863 0.610445 0.772747 0.1146
H_ H_ 0.253841 0.86124 0.767214 0.1146
H_ H_ 0.0451043 0.532844 0.809026 0.1146
H_ H_ 0.0509451 0.787572 0.811738 0.1146
H_ H_ 0.300685 0.534864 0.810306 0.1146
H_ H_ 0.296783 0.783042 0.806582 0.1146
H_ H_ 0.0229661 0.519917 0.736017 0.1146
H_ H_ 0.0210773 0.769772 0.73353 0.1146
H_ H_ 0.276781 0.522561 0.736686 0.1146
H_ H_ 0.268969 0.768491 0.730847 0.1146
H_ H_ 0.0883482 0.695447 0.956867 0.42917
H_ H_ 0.0575243 0.933982 0.957784 0.42917
H_ H_ 0.306255 0.678596 0.962879 0.42917
H_ H_ 0.307826 0.929621 0.9548 0.42917
H_ H_ 0.103804 0.646192 0.933064 0.1146
H_ H_ 0.0917872 0.89748 0.941516 0.1146
H_ H_ 0.342809 0.645459 0.948277 0.1146
H_ H_ 0.344982 0.895395 0.937319 0.1146
H_ H_ 0.140751 0.657247 0.866913 0.1146
H_ H_ 0.151635 0.924448 0.900858 0.1146
H_ H_ 0.40372 0.69944 0.951845 0.1146
H_ H_ 0.370971 0.951721 0.895895 0.1146
H_ H_ 0.161922 0.691843 0.914836 0.1146
H_ H_ 0.142478 0.951482 0.947412 0.1146
H_ H_ 0.378093 0.708371 0.913954 0.1146
H_ H_ 0.395047 0.92555 0.896259 0.1146
H_ H_ 0.130152 0.693673 0.872391 0.1146
H_ H_ 0.12654 0.951604 0.89274 0.1146
H_ H_ 0.394006 0.67623 0.896503 0.1146
H_ H_ 0.393603 0.955103 0.94526 0.1146
H_ H_ 0.173852 0.528086 0.61429 0.42917
H_ H_ 0.166143 0.772756 0.596345 0.42917
H_ H_ 0.42012 0.525992 0.60426 0.42917
H_ H_ 0.423046 0.77265 0.594986 0.42917
H_ H_ 0.144001 0.634455 0.98282 0.1146
H_ H_ 0.138632 0.885291 0.976787 0.1146
H_ H_ 0.40018 0.628794 0.984714 0.1146
H_ H_ 0.389678 0.885964 0.979567 0.1146
H_ H_ 0.0190541 0.715398 0.941914 0.1146
H_ H_ 0.0184965 0.965613 0.941286 0.1146
H_ H_ 0.264401 0.712804 0.941814 0.1146
H_ H_ 0.265382 0.958171 0.941163 0.1146
H_ H_ 1.00963527 0.718859 0.52529 0.1146
H_ H_ 1.00127061 0.98172 0.517082 0.1146
H_ H_ 0.255915 0.726734 0.511898 0.1146
H_ H_ 0.251247 0.973428 0.524694 0.1146
H_ H_ 0.125457 0.603611 0.80254 0.42917
H_ H_ 0.124666 0.86954 0.795204 0.42917
H_ H_ 0.373077 0.623196 0.813461 0.42917
H_ H_ 0.387876 0.869096 0.785335 0.42917
H_ H_ 0.197191 0.619041 0.804036 0.1146
H_ H_ 0.193016 0.870216 0.800121 0.1146
H_ H_ 0.442139 0.622536 0.807376 0.1146
H_ H_ 0.449691 0.870702 0.805773 0.1146
H_ H_ 0.183518 0.555982 0.781102 0.1146
H_ H_ 0.156471 0.810327 0.760221 0.1146
H_ H_ 0.423172 0.563853 0.827194 0.1146
H_ H_ 0.434555 0.814122 0.817867 0.1146
H_ H_ 0.163414 0.551873 0.829109 0.1146
H_ H_ 0.125234 0.805161 0.804495 0.1146
H_ H_ 0.41248 0.561335 0.772902 0.1146
H_ H_ 0.409168 0.811118 0.767257 0.1146
H_ H_ 0.211295 0.578149 0.831631 0.1146
H_ H_ 0.177317 0.81109 0.810392 0.1146
H_ H_ 0.374612 0.54843 0.806655 0.1146
H_ H_ 0.383793 0.80701 0.807292 0.1146
H_ H_ 0.138856 0.714943 0.636725 0.42917
H_ H_ 0.13141 0.966251 0.637685 0.42917
H_ H_ 0.383818 0.711644 0.626259 0.42917
H_ H_ 0.386649 0.970867 0.638487 0.42917
C_ C_ 0.237065 0.652091 0.721732 -0.12085
C_ C_ 0.238374 0.903033 0.717711 -0.12085
C_ C_ 0.48825 0.651261 0.719494 -0.12085
C_ C_ 0.493124 0.908997 0.7218 -0.12085
C_ C_ 0.0133728 0.694106 0.798839 0.6956
C_ C_ 0.012501 0.944261 0.796794 0.6956
C_ C_ 0.258728 0.69263 0.799407 0.6956
C_ C_ 0.260968 0.945637 0.793266 0.6956
C_ C_ 0.239865 0.682971 0.753791 -0.16651
C_ C_ 0.245836 0.935629 0.747241 -0.16651
C_ C_ 0.491763 0.682072 0.751706 -0.16651
C_ C_ 0.494607 0.93954 0.753868 -0.16651
C_ C_ 0.206973 0.692636 0.696894 -0.12085
C_ C_ 0.213417 0.948323 0.693078 -0.12085
C_ C_ 0.461484 0.694041 0.697168 -0.12085
C_ C_ 0.457755 0.948996 0.702789 -0.12085
C_ C_ 0.222856 0.645199 0.677181 0.16698
C_ C_ 0.219951 0.8948 0.676065 0.16698
C_ C_ 0.477848 0.645434 0.675521 0.16698
C_ C_ 0.471653 0.898758 0.68004 0.16698
C_ C_ 0.184956 0.618434 0.616841 0.36401
C_ C_ 0.179896 0.866679 0.618796 0.36401
C_ C_ 0.433668 0.616648 0.619162 0.36401
C_ C_ 0.431881 0.870709 0.620846 0.36401
C_ C_ 0.210097 0.666765 0.666199 0.16698
C_ C_ 0.208073 0.91664 0.66466 0.16698
C_ C_ 0.462487 0.666135 0.665226 0.16698
C_ C_ 0.454513 0.918429 0.671749 0.16698
C_ C_ 0.225171 0.703052 0.7401 -0.12085
C_ C_ 0.231738 0.95767 0.735742 -0.12085
C_ C_ 0.480847 0.704442 0.739185 -0.12085
C_ C_ 0.474735 0.957902 0.744877 -0.12085
C_ C_ 0.165879 0.591904 0.571731 0.15351
C_ C_ 0.151393 0.835556 0.582194 0.15351
C_ C_ 0.40789 0.588585 0.578283 0.15351
C_ C_ 0.407369 0.842184 0.579253 0.15351
C_ C_ 0.129618 0.560062 0.57403 -0.35079
C_ C_ 0.116988 0.807657 0.596215 -0.35079
C_ C_ 0.368348 0.566567 0.59187 -0.35079
C_ C_ 0.368094 0.814281 0.586933 -0.35079
C_ C_ 0.0792817 0.593088 0.523565 -0.12085
C_ C_ 0.075166 0.848062 0.52336 -0.12085
C_ C_ 0.328313 0.59553 0.523748 -0.12085
C_ C_ 0.324972 0.850006 0.524428 -0.12085
C_ C_ 0.0664268 0.553081 0.949542 0.6956
C_ C_ 0.0627548 0.80705 0.947685 0.6956
C_ C_ 0.313334 0.552913 0.949563 0.6956
C_ C_ 0.310744 0.803626 0.946907 0.6956
C_ C_ 0.0545623 0.564722 0.993952 -0.16651
C_ C_ 0.0510741 0.816389 0.992373 -0.16651
C_ C_ 0.304416 0.565084 0.994378 -0.16651
C_ C_ 0.297651 0.816421 0.991164 -0.16651
C_ C_ 0.254933 0.556091 0.542398 -0.12085
C_ C_ 0.250076 0.807483 0.54038 -0.12085
C_ C_ 0.50735 0.554676 0.5476 -0.12085
C_ C_ 0.503074 0.806449 0.54296 -0.12085
C_ C_ 0.0673859 0.603613 0.563772 0.16698
C_ C_ 0.0614016 0.857868 0.562438 0.16698
C_ C_ 0.314918 0.608042 0.563868 0.16698
C_ C_ 0.311949 0.858465 0.562766 0.16698
C_ C_ 0.0642599 0.62565 0.629358 0.36401
C_ C_ 0.0611555 0.869028 0.629137 0.36401
C_ C_ 0.31516 0.624698 0.631293 0.36401
C_ C_ 0.311483 0.86894 0.629498 0.36401
C_ C_ 0.0331294 0.582104 0.57375 0.16698
C_ C_ 0.0247621 0.837977 0.569427 0.16698
C_ C_ 0.280216 0.586436 0.573253 0.16698
C_ C_ 0.274937 0.838276 0.570839 0.16698
C_ C_ 0.0170507 0.545651 1.00343625 -0.12085
C_ C_ 0.0129785 0.796222 -0.000601891 -0.12085
C_ C_ 0.269357 0.542786 0.00592105 -0.12085
C_ C_ 0.260585 0.795598 0.00174426 -0.12085
C_ C_ 0.0747843 0.648103 0.677152 0.15351
C_ C_ 0.0766146 0.884698 0.67793 0.15351
C_ C_ 0.331093 0.644361 0.67754 0.15351
C_ C_ 0.323924 0.886984 0.677473 0.15351
C_ C_ 0.0719046 0.681563 0.693558 -0.35079
C_ C_ 0.0910199 0.922832 0.692241 -0.35079
C_ C_ 0.330964 0.680048 0.691286 -0.35079
C_ C_ 0.337202 0.925561 0.694679 -0.35079
C_ C_ 0.0102193 0.594073 0.779527 -0.12085
C_ C_ 0.00721465 0.842521 0.775756 -0.12085
C_ C_ 0.265231 0.597741 0.777259 -0.12085
C_ C_ 0.260018 0.842243 0.775805 -0.12085
C_ C_ 0.241818 0.552957 0.702088 0.6956
C_ C_ 0.231001 0.798039 0.698029 0.6956
C_ C_ 0.4864 0.550146 0.703986 0.6956
C_ C_ 0.484728 0.801408 0.699831 0.6956
C_ C_ 0.00659958 0.563018 0.746672 -0.16651
C_ C_ 0.00777266 0.812735 0.745583 -0.16651
C_ C_ 0.26094 0.56549 0.748063 -0.16651
C_ C_ 0.254261 0.811255 0.74311 -0.16651
C_ C_ 0.0376632 0.550339 0.800918 -0.12085
C_ C_ 0.0394025 0.802146 0.799158 -0.12085
C_ C_ 0.295789 0.555043 0.801609 -0.12085
C_ C_ 0.288609 0.800401 0.797235 -0.12085
C_ C_ 0.0224436 0.600615 0.823101 0.16698
C_ C_ 0.0280344 0.853493 0.817143 0.16698
C_ C_ 0.284985 0.60745 0.820328 0.16698
C_ C_ 0.274572 0.850566 0.817506 0.16698
C_ C_ 0.0668689 0.62971 0.877521 0.36401
C_ C_ 0.0668945 0.882124 0.876989 0.36401
C_ C_ 0.320001 0.632988 0.881922 0.36401
C_ C_ 0.317002 0.879945 0.874954 0.36401
C_ C_ 0.0398564 0.580787 0.830304 0.16698
C_ C_ 0.0437609 0.83253 0.82677 0.16698
C_ C_ 0.298782 0.585908 0.829737 0.16698
C_ C_ 0.292328 0.831062 0.827276 0.16698
C_ C_ 0.0227076 0.542028 0.758173 -0.12085
C_ C_ 0.022695 0.792197 0.757232 -0.12085
C_ C_ 0.277364 0.545822 0.759287 -0.12085
C_ C_ 0.269265 0.790623 0.755025 -0.12085
C_ C_ 0.0993964 0.659742 0.910262 0.15351
C_ C_ 0.0886326 0.910297 0.919729 0.15351
C_ C_ 0.340795 0.658988 0.926294 0.15351
C_ C_ 0.339618 0.909811 0.917108 0.15351
C_ C_ 0.1347 0.677273 0.889023 -0.35079
C_ C_ 0.129587 0.935905 0.914531 -0.35079
C_ C_ 0.381306 0.688009 0.922352 -0.35079
C_ C_ 0.377361 0.937031 0.913707 -0.35079
C_ C_ 0.173897 0.649734 0.97518 -0.12085
C_ C_ 0.168438 0.898012 0.970589 -0.12085
C_ C_ 0.421734 0.64908 0.977587 -0.12085
C_ C_ 0.417661 0.899877 0.973093 -0.12085
C_ C_ 0.187681 0.692083 0.547663 0.6956
C_ C_ 0.182054 0.942566 0.5527 0.6956
C_ C_ 0.43485 0.690187 0.551434 0.6956
C_ C_ 0.438966 0.944368 0.554168 0.6956
C_ C_ 0.19861 0.682681 0.503452 -0.16651
C_ C_ 0.191405 0.932059 0.506298 -0.16651
C_ C_ 0.449488 0.67728 0.509325 -0.16651
C_ C_ 0.450622 0.933194 0.50957 -0.16651
C_ C_ 0.994047 0.698201 0.954654 -0.12085
C_ C_ 0.992286 0.949301 0.953683 -0.12085
C_ C_ 0.244845 0.692049 0.953715 -0.12085
C_ C_ 0.239512 0.940508 0.950602 -0.12085
C_ C_ 0.187027 0.638001 0.935281 0.16698
C_ C_ 0.181191 0.885544 0.930798 0.16698
C_ C_ 0.432164 0.640303 0.936546 0.16698
C_ C_ 0.4308 0.891078 0.934026 0.16698
C_ C_ 0.187318 0.623692 0.867408 0.36401
C_ C_ 0.184292 0.872143 0.864582 0.36401
C_ C_ 0.432367 0.62434 0.870667 0.36401
C_ C_ 0.433835 0.875412 0.867089 0.36401
C_ C_ 0.221578 0.660114 0.925999 0.16698
C_ C_ 0.219449 0.907053 0.922699 0.16698
C_ C_ 0.467787 0.661003 0.927872 0.16698
C_ C_ 0.466998 0.912054 0.925664 0.16698
C_ C_ 0.234948 0.702885 0.491888 -0.12085
C_ C_ 0.230213 0.949869 0.498731 -0.12085
C_ C_ 0.484646 0.701263 0.497988 -0.12085
C_ C_ 0.487116 0.956114 0.500507 -0.12085
C_ C_ 0.177169 0.602765 0.821741 0.15351
C_ C_ 0.167644 0.856523 0.815697 0.15351
C_ C_ 0.417037 0.607666 0.822659 0.15351
C_ C_ 0.423595 0.858029 0.818957 0.15351
C_ C_ 0.184521 0.570059 0.815733 -0.35079
C_ C_ 0.156115 0.81924 0.796402 -0.35079
C_ C_ 0.405475 0.569381 0.805481 -0.35079
C_ C_ 0.414851 0.82129 0.803361 -0.35079
N_ N_ 0.208015 0.613974 0.645397 -0.51457
N_ N_ 0.205135 0.862359 0.644199 -0.51457
N_ N_ 0.459705 0.612562 0.646072 -0.51457
N_ N_ 0.4577 0.868308 0.648195 -0.51457
N_ N_ 0.183546 0.649327 0.629969 -0.51457
N_ N_ 0.178096 0.898174 0.631272 -0.51457
N_ N_ 0.434698 0.649043 0.629657 -0.51457
N_ N_ 0.429835 0.901992 0.63426 -0.51457
N_ N_ 0.0891442 0.634287 0.599083 -0.51457
N_ N_ 0.0851738 0.877961 0.600024 -0.51457
N_ N_ 0.337669 0.63318 0.599562 -0.51457
N_ N_ 0.335345 0.877944 0.600038 -0.51457
N_ N_ 0.0306681 0.593028 0.614625 -0.51457
N_ N_ 0.0245624 0.843709 0.610676 -0.51457
N_ N_ 0.280026 0.595954 0.616107 -0.51457
N_ N_ 0.27492 0.843273 0.613059 -0.51457
N_ N_ 0.0414312 0.633464 0.851838 -0.51457
N_ N_ 0.0422787 0.884639 0.848328 -0.51457
N_ N_ 0.295916 0.637034 0.853459 -0.51457
N_ N_ 0.290958 0.882919 0.847217 -0.51457
N_ N_ 0.0675743 0.597632 0.865919 -0.51457
N_ N_ 0.0672221 0.849936 0.865067 -0.51457
N_ N_ 0.319708 0.601368 0.868913 -0.51457
N_ N_ 0.320009 0.848829 0.862973 -0.51457
N_ N_ 0.162953 0.614366 0.898116 -0.51457
N_ N_ 0.158572 0.865039 0.893471 -0.51457
N_ N_ 0.40811 0.616025 0.900841 -0.51457
N_ N_ 0.408134 0.866853 0.896823 -0.51457
N_ N_ 0.224255 0.650761 0.884058 -0.51457
N_ N_ 0.220358 0.896994 0.881341 -0.51457
N_ N_ 0.469321 0.650829 0.885213 -0.51457
N_ N_ 0.467793 0.904223 0.883015 -0.51457
O_ O_ 0.0185142 0.724997 0.82654 -0.61362
O_ O_ 0.0212187 0.976368 0.823694 -0.61362
O_ O_ 0.265686 0.72196 0.824839 -0.61362
O_ O_ 0.275651 0.977586 0.817879 -0.61362
O_ O_ 0.0594724 0.718862 0.877644 -0.98607
O_ O_ 0.060389 0.968133 0.878319 -0.98607
O_ O_ 0.307863 0.71574 0.883657 -0.98607
O_ O_ 0.301486 0.962702 0.880768 -0.98607
O_ O_ 0.0207736 0.67251 0.812497 -0.61362
O_ O_ 0.0233353 0.922993 0.809305 -0.61362
O_ O_ 0.273179 0.673737 0.809578 -0.61362
O_ O_ 0.257264 0.921347 0.80943 -0.61362
O_ O_ 0.188316 0.579926 0.550469 -0.55956
O_ O_ 0.171888 0.821134 0.562491 -0.55956
O_ O_ 0.424446 0.569514 0.558203 -0.55956
O_ O_ 0.427573 0.827131 0.558189 -0.55956
O_ O_ 0.0453594 0.520841 0.923638 -0.61362
O_ O_ 0.044249 0.776198 0.922412 -0.61362
O_ O_ 0.28889 0.52448 0.923468 -0.61362
O_ O_ 0.290718 0.771454 0.924118 -0.61362
O_ O_ 0.0907701 0.534631 0.867438 -0.98607
O_ O_ 0.0963718 0.789299 0.869106 -0.98607
O_ O_ 0.342198 0.53607 0.873485 -0.98607
O_ O_ 0.340298 0.784999 0.86694 -0.98607
O_ O_ 0.094714 0.575637 0.937413 -0.61362
O_ O_ 0.0937868 0.828848 0.936991 -0.61362
O_ O_ 0.342968 0.575357 0.937144 -0.61362
O_ O_ 0.345678 0.823393 0.938503 -0.61362
O_ O_ 0.110534 0.656457 0.69111 -0.55956
O_ O_ 0.106183 0.878869 0.688276 -0.55956
O_ O_ 0.367074 0.648249 0.689265 -0.55956
O_ O_ 0.351699 0.880581 0.688589 -0.55956
O_ O_ 0.224317 0.519948 0.679175 -0.61362
O_ O_ 0.219335 0.765773 0.674456 -0.61362
O_ O_ 0.468531 0.516878 0.681855 -0.61362
O_ O_ 0.474535 0.769821 0.677276 -0.61362
O_ O_ 0.198943 0.533694 0.621774 -0.98607
O_ O_ 0.188065 0.779906 0.611672 -0.98607
O_ O_ 0.442449 0.529828 0.617833 -0.98607
O_ O_ 0.442444 0.780963 0.614116 -0.98607
O_ O_ 0.247735 0.576938 0.684063 -0.61362
O_ O_ 0.231038 0.822386 0.682345 -0.61362
O_ O_ 0.487415 0.573876 0.686795 -0.61362
O_ O_ 0.487921 0.824487 0.682704 -0.61362
O_ O_ 0.0866405 0.680472 0.93324 -0.55956
O_ O_ 0.0687335 0.927339 0.935742 -0.55956
O_ O_ 0.32182 0.676471 0.944827 -0.55956
O_ O_ 0.319649 0.926296 0.934326 -0.55956
O_ O_ 0.208812 0.723124 0.575524 -0.61362
O_ O_ 0.197001 0.976275 0.573063 -0.61362
O_ O_ 0.451262 0.723172 0.574321 -0.61362
O_ O_ 0.459995 0.975865 0.57931 -0.61362
O_ O_ 0.157402 0.711654 0.624178 -0.98607
O_ O_ 0.150677 0.960759 0.62701 -0.98607
O_ O_ 0.40558 0.710142 0.624059 -0.98607
O_ O_ 0.404056 0.962833 0.628136 -0.98607
O_ O_ 0.15421 0.671064 0.557412 -0.61362
O_ O_ 0.149734 0.922442 0.564675 -0.61362
O_ O_ 0.407137 0.668481 0.564042 -0.61362
O_ O_ 0.405555 0.924823 0.56396 -0.61362
O_ O_ 0.141751 0.594975 0.808845 -0.55956
O_ O_ 0.137975 0.862376 0.809632 -0.55956
O_ O_ 0.385704 0.61125 0.815379 -0.55956
O_ O_ 0.39543 0.861107 0.803597 -0.55956
Zn Zn 0.526287 0.173149 0.367904 0.91541
Zn Zn 0.522743 0.421835 0.365684 0.91541
Zn Zn 0.77753 0.174022 0.364639 0.91541
Zn Zn 0.774583 0.42186 0.360063 0.91541
Zn Zn 0.602819 0.0789601 0.387721 0.91541
Zn Zn 0.605374 0.330454 0.389444 0.91541
Zn Zn 0.857467 0.0823085 0.384439 0.91541
Zn Zn 0.85207 0.328891 0.382636 0.91541
Zn Zn 0.724757 0.0793381 0.138808 0.91541
Zn Zn 0.72313 0.326644 0.136513 0.91541
Zn Zn 0.976447 0.0784836 0.137753 0.91541
Zn Zn 0.97397 0.324766 0.134066 0.91541
Zn Zn 0.644667 0.170528 0.117316 0.91541
Zn Zn 0.64804 0.422794 0.111423 0.91541
Zn Zn 0.896287 0.168443 0.11348 0.91541
Zn Zn 0.895778 0.417647 0.113672 0.91541
Zn Zn 0.549649 1.00323857 0.374961 1.11764
Zn Zn 0.559052 0.251806 0.378198 1.11764
Zn Zn 0.803523 0.00192939 0.37187 1.11764
Zn Zn 0.808756 0.252783 0.378651 1.11764
Zn Zn 0.698307 0.501127 0.1243 1.11764
Zn Zn 0.68844 0.246918 0.122618 1.11764
Zn Zn 0.943078 0.495644 0.124483 1.11764
Zn Zn 0.947482 0.246029 0.124454 1.11764
H_ H_ 0.754397 0.144358 0.228473 0.1146
H_ H_ 0.747396 0.38782 0.226596 0.1146
H_ H_ 0.00499061 0.142141 0.225905 0.1146
H_ H_ 1.0072495 0.391086 0.229223 0.1146
H_ H_ 0.686493 0.208581 0.202082 0.1146
H_ H_ 0.691264 0.460224 0.193272 0.1146
H_ H_ 0.938974 0.210135 0.193631 0.1146
H_ H_ 0.936126 0.457632 0.198357 0.1146
H_ H_ 0.717982 0.224291 0.273081 0.1146
H_ H_ 0.726267 0.47619 0.265196 0.1146
H_ H_ 0.976751 0.22987 0.266156 0.1146
H_ H_ 0.966723 0.471019 0.272362 0.1146
H_ H_ 0.675858 0.0659422 0.0403646 0.42917
H_ H_ 0.690312 0.316839 0.0369512 0.42917
H_ H_ 0.948164 0.0738263 0.0396278 0.42917
H_ H_ 0.934678 0.319809 0.0350699 0.42917
H_ H_ 0.641033 0.103578 0.0687098 0.1146
H_ H_ 0.665909 0.363655 0.054903 0.1146
H_ H_ 0.908023 0.104688 0.0552062 0.1146
H_ H_ 0.894701 0.349268 0.0624532 0.1146
H_ H_ 0.601848 0.0405404 0.0772437 0.1146
H_ H_ 0.605997 0.334471 0.0905558 0.1146
H_ H_ 0.852802 0.048502 0.0533081 0.1146
H_ H_ 0.856483 0.324197 0.117109 0.1146
H_ H_ 0.625853 0.0626484 0.131261 0.1146
H_ H_ 0.607332 0.303378 0.0409897 0.1146
H_ H_ 0.876035 0.0564993 0.10642 0.1146
H_ H_ 0.848659 0.287232 0.0652378 0.1146
H_ H_ 0.593082 0.0734896 0.107084 0.1146
H_ H_ 0.623158 0.304047 0.0903177 0.1146
H_ H_ 0.855652 0.0836219 0.0961376 0.1146
H_ H_ 0.883869 0.30076 0.112873 0.1146
H_ H_ 0.583772 0.223454 0.402009 0.42917
H_ H_ 0.582782 0.468987 0.384131 0.42917
H_ H_ 0.836127 0.221467 0.396908 0.42917
H_ H_ 0.823358 0.472379 0.402143 0.42917
H_ H_ 0.6079 0.112547 0.0209837 0.1146
H_ H_ 0.604936 0.372166 0.016816 0.1146
H_ H_ 0.860927 0.112522 0.0223961 0.1146
H_ H_ 0.850622 0.36589 0.0176848 0.1146
H_ H_ 0.726492 0.0460036 0.0486273 0.1146
H_ H_ 0.727731 0.287281 0.0514177 0.1146
H_ H_ 0.977496 0.0434891 0.0497602 0.1146
H_ H_ 0.981138 0.284652 0.0514119 0.1146
H_ H_ 0.75176 0.0196028 0.483634 0.1146
H_ H_ 0.759076 0.267076 0.488283 0.1146
H_ H_ 0.997451 0.0270107 0.478723 0.1146
H_ H_ 0.0005699999999999594 0.270989 0.478008 0.1146
H_ H_ 0.629536 0.133906 0.191982 0.42917
H_ H_ 0.632908 0.386672 0.195179 0.42917
H_ H_ 0.88175 0.139769 0.197263 0.42917
H_ H_ 0.857445 0.362601 0.194865 0.42917
H_ H_ 0.552134 0.123687 0.194152 0.1146
H_ H_ 0.554266 0.379176 0.197169 0.1146
H_ H_ 0.803509 0.127034 0.202695 0.1146
H_ H_ 0.798374 0.377122 0.194922 0.1146
H_ H_ 0.619039 0.189803 0.194919 0.1146
H_ H_ 0.623736 0.444665 0.197967 0.1146
H_ H_ 0.84702 0.186749 0.236328 0.1146
H_ H_ 0.845655 0.432345 0.230832 0.1146
H_ H_ 0.570754 0.182087 0.185235 0.1146
H_ H_ 0.576846 0.438205 0.18533 0.1146
H_ H_ 0.865634 0.188435 0.186532 0.1146
H_ H_ 0.866873 0.441291 0.187006 0.1146
H_ H_ 0.589603 0.182094 0.236436 0.1146
H_ H_ 0.593858 0.435495 0.23631 0.1146
H_ H_ 0.814411 0.18499 0.192148 0.1146
H_ H_ 0.815173 0.428706 0.186716 0.1146
H_ H_ 0.612775 0.0312251 0.374402 0.42917
H_ H_ 0.620351 0.284017 0.377132 0.42917
H_ H_ 0.866285 0.0319235 0.368396 0.42917
H_ H_ 0.87023 0.284581 0.373056 0.42917
H_ H_ 0.494321 0.108094 0.272499 0.1146
H_ H_ 0.497668 0.358765 0.275275 0.1146
H_ H_ 0.758123 0.116353 0.268668 0.1146
H_ H_ 0.750244 0.358898 0.267165 0.1146
H_ H_ 0.5519 0.0351607 0.308378 0.1146
H_ H_ 0.562265 0.292341 0.308998 0.1146
H_ H_ 0.822884 0.0469475 0.301663 0.1146
H_ H_ 0.805059 0.286222 0.298157 0.1146
H_ H_ 0.526632 0.0220892 0.233209 0.1146
H_ H_ 0.526138 0.272969 0.236357 0.1146
H_ H_ 0.783419 0.0255323 0.231661 0.1146
H_ H_ 0.767574 0.26834 0.226729 0.1146
H_ H_ 0.570449 0.180458 0.461882 0.42917
H_ H_ 0.572878 0.446752 0.448102 0.42917
H_ H_ 0.812932 0.176398 0.456038 0.42917
H_ H_ 0.795242 0.41812 0.459915 0.42917
H_ H_ 0.606269 0.145739 0.432904 0.1146
H_ H_ 0.596669 0.398223 0.443911 0.1146
H_ H_ 0.85825 0.147616 0.437473 0.1146
H_ H_ 0.835235 0.383737 0.440112 0.1146
H_ H_ 0.652202 0.207743 0.433983 0.1146
H_ H_ 0.653738 0.456073 0.439343 0.1146
H_ H_ 0.904524 0.212035 0.42931 0.1146
H_ H_ 0.891648 0.421027 0.406678 0.1146
H_ H_ 0.627247 0.18963 0.378729 0.1146
H_ H_ 0.620808 0.444706 0.391892 0.1146
H_ H_ 0.874802 0.190394 0.375381 0.1146
H_ H_ 0.886182 0.445848 0.454772 0.1146
H_ H_ 0.656305 0.173437 0.399527 0.1146
H_ H_ 0.647275 0.419826 0.394257 0.1146
H_ H_ 0.904296 0.174234 0.393726 0.1146
H_ H_ 0.866634 0.444978 0.405904 0.1146
H_ H_ 0.671319 0.0322484 0.110255 0.42917
H_ H_ 0.665769 0.280329 0.103481 0.42917
H_ H_ 0.921423 0.0282406 0.102248 0.42917
H_ H_ 0.924812 0.275022 0.0934572 0.42917
H_ H_ 0.643423 0.141354 0.483133 0.1146
H_ H_ 0.64422 0.388629 0.479147 0.1146
H_ H_ 0.899708 0.138447 0.48402 0.1146
H_ H_ 0.889886 0.38819 0.479605 0.1146
H_ H_ 0.517344 0.216696 0.445767 0.1146
H_ H_ 0.517548 0.457713 0.448747 0.1146
H_ H_ 0.771535 0.209818 0.442824 0.1146
H_ H_ 0.772153 0.465733 0.449867 0.1146
H_ H_ 0.500907 0.226004 0.0199947 0.1146
H_ H_ 0.502987 0.473157 0.0236473 0.1146
H_ H_ 0.745733 0.232401 0.0171482 0.1146
H_ H_ 0.760773 0.473521 0.0262474 0.1146
H_ H_ 0.614415 0.0949254 0.293845 0.42917
H_ H_ 0.634085 0.359702 0.29009 0.42917
H_ H_ 0.882706 0.112748 0.28663 0.42917
H_ H_ 0.890201 0.383106 0.30493 0.42917
H_ H_ 0.693787 0.125372 0.30652 0.1146
H_ H_ 0.700731 0.368878 0.30268 0.1146
H_ H_ 0.951908 0.121973 0.302742 0.1146
H_ H_ 0.94906 0.371477 0.302 0.1146
H_ H_ 0.703347 0.075838 0.313864 0.1146
H_ H_ 0.639414 0.297492 0.302655 0.1146
H_ H_ 0.941254 0.0695169 0.312237 0.1146
H_ H_ 0.883863 0.308017 0.319248 0.1146
H_ H_ 0.663045 0.0629877 0.269488 0.1146
H_ H_ 0.690501 0.313151 0.330222 0.1146
H_ H_ 0.910436 0.0645639 0.267355 0.1146
H_ H_ 0.932487 0.313745 0.310251 0.1146
H_ H_ 0.648694 0.0513044 0.315151 0.1146
H_ H_ 0.679955 0.306607 0.27607 0.1146
H_ H_ 0.888997 0.0557708 0.31615 0.1146
H_ H_ 0.898526 0.311489 0.271495 0.1146
H_ H_ 0.628505 0.213443 0.128001 0.42917
H_ H_ 0.639159 0.467936 0.134844 0.42917
H_ H_ 0.883639 0.211897 0.118213 0.42917
H_ H_ 0.88328 0.464219 0.131286 0.42917
C_ C_ 0.740994 0.158803 0.222811 -0.12085
C_ C_ 0.741048 0.406759 0.219245 -0.12085
C_ C_ 0.989287 0.156438 0.220758 -0.12085
C_ C_ 0.988229 0.402962 0.223867 -0.12085
C_ C_ 0.512957 0.195416 0.302388 0.6956
C_ C_ 0.50849 0.44551 0.302585 0.6956
C_ C_ 0.765913 0.198777 0.302119 0.6956
C_ C_ 0.767949 0.449231 0.295561 0.6956
C_ C_ 0.744401 0.188394 0.257036 -0.16651
C_ C_ 0.745628 0.437504 0.251701 -0.16651
C_ C_ 0.991352 0.18601 0.25291 -0.16651
C_ C_ 0.989717 0.432746 0.256706 -0.16651
C_ C_ 0.702129 0.194653 0.206593 -0.12085
C_ C_ 0.705448 0.445655 0.200237 -0.12085
C_ C_ 0.950043 0.193136 0.2023 -0.12085
C_ C_ 0.949729 0.441277 0.205148 -0.12085
C_ C_ 0.725281 0.152152 0.181099 0.16698
C_ C_ 0.720745 0.398021 0.177577 0.16698
C_ C_ 0.972148 0.14729 0.177953 0.16698
C_ C_ 0.967238 0.392444 0.181569 0.16698
C_ C_ 0.680691 0.121824 0.125909 0.36401
C_ C_ 0.683086 0.372456 0.118692 0.36401
C_ C_ 0.937496 0.120353 0.116602 0.36401
C_ C_ 0.931757 0.36657 0.121726 0.36401
C_ C_ 0.705973 0.171363 0.172836 0.16698
C_ C_ 0.706345 0.418841 0.167964 0.16698
C_ C_ 0.954354 0.16747 0.168346 0.16698
C_ C_ 0.94728 0.411956 0.174582 0.16698
C_ C_ 0.723725 0.205189 0.248734 -0.12085
C_ C_ 0.725212 0.454686 0.240931 -0.12085
C_ C_ 0.974178 0.205035 0.240971 -0.12085
C_ C_ 0.967794 0.449108 0.247242 -0.12085
C_ C_ 0.652858 0.0916874 0.0886251 0.15351
C_ C_ 0.666432 0.347997 0.07386 0.15351
C_ C_ 0.911677 0.091659 0.0768659 0.15351
C_ C_ 0.904585 0.337092 0.0818547 0.15351
C_ C_ 0.617075 0.0657575 0.102379 -0.35079
C_ C_ 0.622041 0.320575 0.0726589 -0.35079
C_ C_ 0.871027 0.0676335 0.0829556 -0.35079
C_ C_ 0.868681 0.3098 0.0932381 -0.35079
C_ C_ 0.577313 0.0996655 0.025914 -0.12085
C_ C_ 0.576991 0.356392 0.0242745 -0.12085
C_ C_ 0.830394 0.0999069 0.0260643 -0.12085
C_ C_ 0.828183 0.347299 0.0261221 -0.12085
C_ C_ 0.568058 0.0564912 0.451969 0.6956
C_ C_ 0.566637 0.305404 0.451661 0.6956
C_ C_ 0.812499 0.0550825 0.444919 0.6956
C_ C_ 0.816486 0.305428 0.450445 0.6956
C_ C_ 0.556866 0.0685244 0.496377 -0.16651
C_ C_ 0.555764 0.316556 0.496425 -0.16651
C_ C_ 0.805114 0.0664289 0.490384 -0.16651
C_ C_ 0.808088 0.315353 0.49504 -0.16651
C_ C_ 0.752522 0.0616807 0.0400918 -0.12085
C_ C_ 0.754791 0.303385 0.0429042 -0.12085
C_ C_ 0.00898798 0.0579652 0.0439683 -0.12085
C_ C_ 0.00547769 0.301761 0.0437605 -0.12085
C_ C_ 0.565763 0.108214 0.0665657 0.16698
C_ C_ 0.569382 0.363865 0.0664121 0.16698
C_ C_ 0.816325 0.110616 0.0667495 0.16698
C_ C_ 0.815926 0.355087 0.0658031 0.16698
C_ C_ 0.56377 0.121697 0.131762 0.36401
C_ C_ 0.565011 0.377511 0.132632 0.36401
C_ C_ 0.811728 0.123712 0.132773 0.36401
C_ C_ 0.813556 0.370377 0.131738 0.36401
C_ C_ 0.528894 0.0864752 0.0736573 0.16698
C_ C_ 0.534433 0.339501 0.0743636 0.16698
C_ C_ 0.779292 0.0911789 0.0730138 0.16698
C_ C_ 0.779081 0.334363 0.0733356 0.16698
C_ C_ 0.519242 0.0477371 0.504948 -0.12085
C_ C_ 0.521666 0.293848 0.507327 -0.12085
C_ C_ 0.77013 0.0453128 0.50373 -0.12085
C_ C_ 0.777545 0.292211 0.508964 -0.12085
C_ C_ 0.577974 0.137446 0.180224 0.15351
C_ C_ 0.580127 0.390211 0.181129 0.15351
C_ C_ 0.826979 0.13825 0.18191 0.15351
C_ C_ 0.824686 0.386936 0.179093 0.15351
C_ C_ 0.589642 0.174769 0.200854 -0.35079
C_ C_ 0.592176 0.427902 0.201919 -0.35079
C_ C_ 0.838116 0.177189 0.200653 -0.35079
C_ C_ 0.840906 0.424851 0.19665 -0.35079
C_ C_ 0.506251 0.0914674 0.280258 -0.12085
C_ C_ 0.509518 0.344271 0.282618 -0.12085
C_ C_ 0.768128 0.0991004 0.276787 -0.12085
C_ C_ 0.762156 0.343315 0.27289 -0.12085
C_ C_ 0.746348 0.0568505 0.19887 0.6956
C_ C_ 0.737133 0.301894 0.194335 0.6956
C_ C_ 0.99061 0.0542181 0.198338 0.6956
C_ C_ 0.985202 0.305031 0.201048 0.6956
C_ C_ 0.503161 0.0601335 0.247288 -0.16651
C_ C_ 0.509721 0.315794 0.25032 -0.16651
C_ C_ 0.761968 0.066628 0.245076 -0.16651
C_ C_ 0.757144 0.312237 0.240276 -0.16651
C_ C_ 0.540138 0.0514602 0.299054 -0.12085
C_ C_ 0.547644 0.305449 0.299925 -0.12085
C_ C_ 0.805111 0.0594281 0.295148 -0.12085
C_ C_ 0.793657 0.303218 0.291654 -0.12085
C_ C_ 0.526682 0.101447 0.320348 0.16698
C_ C_ 0.527873 0.351341 0.323903 0.16698
C_ C_ 0.786232 0.107487 0.318015 0.16698
C_ C_ 0.785771 0.354262 0.311056 0.16698
C_ C_ 0.570048 0.130356 0.376763 0.36401
C_ C_ 0.566098 0.37962 0.383005 0.36401
C_ C_ 0.822582 0.133613 0.378792 0.36401
C_ C_ 0.812791 0.374892 0.377506 0.36401
C_ C_ 0.542369 0.0810611 0.328747 0.16698
C_ C_ 0.546606 0.331937 0.331257 0.16698
C_ C_ 0.802263 0.0867863 0.325854 0.16698
C_ C_ 0.805145 0.335428 0.318135 0.16698
C_ C_ 0.522052 0.0413063 0.258254 -0.12085
C_ C_ 0.524021 0.29355 0.261657 -0.12085
C_ C_ 0.784413 0.0489788 0.25531 -0.12085
C_ C_ 0.771432 0.291989 0.251819 -0.12085
C_ C_ 0.596165 0.158584 0.415908 0.15351
C_ C_ 0.5935 0.410397 0.420827 0.15351
C_ C_ 0.848781 0.161173 0.4173 0.15351
C_ C_ 0.832293 0.400833 0.422318 0.15351
C_ C_ 0.634555 0.184208 0.405781 -0.35079
C_ C_ 0.632441 0.433831 0.411812 -0.35079
C_ C_ 0.884752 0.187631 0.403959 -0.35079
C_ C_ 0.871106 0.42926 0.423062 -0.35079
C_ C_ 0.673019 0.154977 0.475956 -0.12085
C_ C_ 0.675107 0.403829 0.476176 -0.12085
C_ C_ 0.928807 0.153136 0.477948 -0.12085
C_ C_ 0.920237 0.401245 0.474065 -0.12085
C_ C_ 0.680965 0.192488 0.0519652 0.6956
C_ C_ 0.6886 0.445526 0.0507851 0.6956
C_ C_ 0.935774 0.191158 0.0509874 0.6956
C_ C_ 0.931455 0.440259 0.0492554 0.6956
C_ C_ 0.690371 0.183635 0.00703281 -0.16651
C_ C_ 0.700937 0.433331 0.00891418 -0.16651
C_ C_ 0.943483 0.182609 0.00476036 -0.16651
C_ C_ 0.943757 0.430382 0.00520127 -0.16651
C_ C_ 0.489753 0.198372 0.453942 -0.12085
C_ C_ 0.492689 0.439415 0.457074 -0.12085
C_ C_ 0.746631 0.193415 0.454808 -0.12085
C_ C_ 0.745469 0.44665 0.455943 -0.12085
C_ C_ 0.685796 0.140183 0.437056 0.16698
C_ C_ 0.686169 0.393127 0.435044 0.16698
C_ C_ 0.937388 0.145217 0.43394 0.16698
C_ C_ 0.933689 0.391099 0.434346 0.16698
C_ C_ 0.686648 0.123487 0.369182 0.36401
C_ C_ 0.690375 0.372768 0.369872 0.36401
C_ C_ 0.941681 0.128417 0.368969 0.36401
C_ C_ 0.93837 0.375449 0.365847 0.36401
C_ C_ 0.722946 0.160199 0.427011 0.16698
C_ C_ 0.719741 0.415055 0.424481 0.16698
C_ C_ 0.9747 0.166721 0.427149 0.16698
C_ C_ 0.971521 0.410811 0.425739 0.16698
C_ C_ 0.727501 0.20512 0.99628 -0.12085
C_ C_ 0.739074 0.451331 1.00115 -0.12085
C_ C_ 0.982412 0.203342 0.995973 -0.12085
C_ C_ 0.977059 0.453015 0.993886 -0.12085
C_ C_ 0.671329 0.106822 0.321511 0.15351
C_ C_ 0.677694 0.355001 0.320208 0.15351
C_ C_ 0.928629 0.111566 0.320965 0.15351
C_ C_ 0.92313 0.360137 0.318496 0.15351
C_ C_ 0.671328 0.0721663 0.305236 -0.35079
C_ C_ 0.671705 0.317852 0.308279 -0.35079
C_ C_ 0.914785 0.0725763 0.302734 -0.35079
C_ C_ 0.909057 0.3212 0.303436 -0.35079
N_ N_ 0.70831 0.120254 0.152009 -0.51457
N_ N_ 0.706257 0.366973 0.14531 -0.51457
N_ N_ 0.960124 0.116994 0.145515 -0.51457
N_ N_ 0.957359 0.363088 0.148703 -0.51457
N_ N_ 0.679884 0.153676 0.136532 -0.51457
N_ N_ 0.682622 0.404262 0.130906 -0.51457
N_ N_ 0.93176 0.149954 0.130471 -0.51457
N_ N_ 0.928413 0.397619 0.135526 -0.51457
N_ N_ 0.58846 0.131679 0.10272 -0.51457
N_ N_ 0.591423 0.387921 0.10305 -0.51457
N_ N_ 0.839131 0.132526 0.104495 -0.51457
N_ N_ 0.837938 0.381307 0.102319 -0.51457
N_ N_ 0.526721 0.0957617 0.115279 -0.51457
N_ N_ 0.530703 0.34763 0.115042 -0.51457
N_ N_ 0.775823 0.0950393 0.114176 -0.51457
N_ N_ 0.776328 0.343829 0.115288 -0.51457
N_ N_ 0.542832 0.134206 0.351275 -0.51457
N_ N_ 0.540063 0.381948 0.356292 -0.51457
N_ N_ 0.798421 0.137466 0.351373 -0.51457
N_ N_ 0.793036 0.382354 0.347473 -0.51457
N_ N_ 0.569476 0.0979117 0.364857 -0.51457
N_ N_ 0.571088 0.349931 0.368717 -0.51457
N_ N_ 0.823527 0.102302 0.36497 -0.51457
N_ N_ 0.823136 0.347971 0.358641 -0.51457
N_ N_ 0.661073 0.116789 0.400016 -0.51457
N_ N_ 0.663504 0.365934 0.399234 -0.51457
N_ N_ 0.914446 0.120638 0.397096 -0.51457
N_ N_ 0.911214 0.368448 0.395698 -0.51457
N_ N_ 0.723398 0.150978 0.38532 -0.51457
N_ N_ 0.725675 0.400851 0.384782 -0.51457
N_ N_ 0.977611 0.15748 0.386414 -0.51457
N_ N_ 0.974906 0.401204 0.384203 -0.51457
O_ O_ 0.528134 0.229369 0.324724 -0.61362
O_ O_ 0.514881 0.47503 0.329892 -0.61362
O_ O_ 0.770454 0.227818 0.33188 -0.61362
O_ O_ 0.781816 0.48118 0.319638 -0.61362
O_ O_ 0.561758 0.216922 0.385346 -0.98607
O_ O_ 0.558401 0.466295 0.380069 -0.98607
O_ O_ 0.813849 0.216978 0.383121 -0.98607
O_ O_ 0.805188 0.465625 0.381592 -0.98607
O_ O_ 0.519752 0.173407 0.315965 -0.61362
O_ O_ 0.520843 0.425618 0.313996 -0.61362
O_ O_ 0.771229 0.174928 0.313419 -0.61362
O_ O_ 0.770888 0.425489 0.308096 -0.61362
O_ O_ 0.670726 0.074202 0.0663377 -0.55956
O_ O_ 0.688918 0.332774 0.059294 -0.55956
O_ O_ 0.929225 0.0750254 0.0557717 -0.55956
O_ O_ 0.922858 0.321216 0.0578436 -0.55956
O_ O_ 0.545934 0.0261675 0.426302 -0.61362
O_ O_ 0.546461 0.2739 0.425176 -0.61362
O_ O_ 0.789193 0.0220559 0.42077 -0.61362
O_ O_ 0.794929 0.273452 0.425214 -0.61362
O_ O_ 0.592061 0.0360356 0.374915 -0.98607
O_ O_ 0.599153 0.286486 0.376792 -0.98607
O_ O_ 0.846598 0.0371103 0.373969 -0.98607
O_ O_ 0.847864 0.287235 0.374278 -0.98607
O_ O_ 0.594812 0.0811399 0.439312 -0.61362
O_ O_ 0.593738 0.328135 0.438877 -0.61362
O_ O_ 0.836685 0.0770007 0.429244 -0.61362
O_ O_ 0.842002 0.328716 0.436178 -0.61362
O_ O_ 0.605883 0.130217 0.191941 -0.55956
O_ O_ 0.606585 0.381111 0.190361 -0.55956
O_ O_ 0.85636 0.132511 0.190372 -0.55956
O_ O_ 0.851331 0.378632 0.192935 -0.55956
O_ O_ 0.73504 0.0241144 0.174669 -0.61362
O_ O_ 0.725198 0.269128 0.16962 -0.61362
O_ O_ 0.983077 0.023385 0.171876 -0.61362
O_ O_ 0.975418 0.273112 0.176821 -0.61362
O_ O_ 0.692975 0.0354757 0.121859 -0.98607
O_ O_ 0.688083 0.284386 0.116584 -0.98607
O_ O_ 0.9432 0.0340234 0.118075 -0.98607
O_ O_ 0.941678 0.280349 0.114426 -0.98607
O_ O_ 0.732245 0.0761919 0.189496 -0.61362
O_ O_ 0.719634 0.320002 0.185003 -0.61362
O_ O_ 0.979189 0.0745021 0.187996 -0.61362
O_ O_ 0.985108 0.328289 0.186166 -0.61362
O_ O_ 0.578334 0.17563 0.438456 -0.55956
O_ O_ 0.574933 0.427696 0.439781 -0.55956
O_ O_ 0.830435 0.17663 0.439973 -0.55956
O_ O_ 0.81019 0.413465 0.441737 -0.55956
O_ O_ 0.701525 0.222833 0.0797426 -0.61362
O_ O_ 0.706772 0.477651 0.0738024 -0.61362
O_ O_ 0.959941 0.222208 0.0785534 -0.61362
O_ O_ 0.954753 0.469985 0.077142 -0.61362
O_ O_ 0.650421 0.212133 0.127583 -0.98607
O_ O_ 0.660034 0.466025 0.127862 -0.98607
O_ O_ 0.905268 0.211035 0.125032 -0.98607
O_ O_ 0.903985 0.461481 0.127947 -0.98607
O_ O_ 0.654275 0.168543 0.0642997 -0.61362
O_ O_ 0.65644 0.426625 0.0599906 -0.61362
O_ O_ 0.90215 0.172514 0.0630323 -0.61362
O_ O_ 0.905319 0.416359 0.0620492 -0.61362
O_ O_ 0.635686 0.10422 0.312862 -0.55956
O_ O_ 0.644919 0.354577 0.307296 -0.55956
O_ O_ 0.898557 0.115874 0.307831 -0.55956
O_ O_ 0.895788 0.366869 0.306227 -0.55956
Zn Zn 0.523077 0.175892 0.869743 0.91541
Zn Zn 0.525289 0.423394 0.865446 0.91541
Zn Zn 0.769464 0.172478 0.86358 0.91541
Zn Zn 0.778863 0.425429 0.865838 0.91541
Zn Zn 0.601138 0.0818194 0.887054 0.91541
Zn Zn 0.605379 0.332434 0.886953 0.91541
Zn Zn 0.851391 0.0816527 0.88342 0.91541
Zn Zn 0.852119 0.328913 0.885307 0.91541
Zn Zn 0.726603 0.0746942 0.630195 0.91541
Zn Zn 0.730836 0.327559 0.636569 0.91541
Zn Zn 0.970268 0.0757937 0.63562 0.91541
Zn Zn 0.980215 0.325868 0.636179 0.91541
Zn Zn 0.649806 0.169707 0.615184 0.91541
Zn Zn 0.64789 0.420247 0.613837 0.91541
Zn Zn 0.901795 0.172236 0.612119 0.91541
Zn Zn 0.902309 0.420852 0.615821 0.91541
Zn Zn 0.555839 1.00392597 0.875821 1.11764
Zn Zn 0.553533 0.256288 0.875264 1.11764
Zn Zn 0.804539 0.00206656 0.875633 1.11764
Zn Zn 0.802014 0.251165 0.871645 1.11764
Zn Zn 0.697688 0.497678 0.622196 1.11764
Zn Zn 0.706149 0.250197 0.627043 1.11764
Zn Zn 0.95005 0.496839 0.628577 1.11764
Zn Zn 0.952394 0.250845 0.623312 1.11764
H_ H_ 0.751967 0.136299 0.726559 0.1146
H_ H_ 0.736378 0.383442 0.735179 0.1146
H_ H_ -0.010098999999999969 0.136321 0.734155 0.1146
H_ H_ 0.00521774 0.387233 0.728151 0.1146
H_ H_ 0.68778 0.203722 0.690876 0.1146
H_ H_ 0.695462 0.461964 0.689234 0.1146
H_ H_ 0.945072 0.213456 0.691158 0.1146
H_ H_ 0.940662 0.454257 0.694024 0.1146
H_ H_ 0.712691 0.218668 0.765838 0.1146
H_ H_ 0.731228 0.482401 0.765006 0.1146
H_ H_ 0.979007 0.230524 0.767324 0.1146
H_ H_ 0.969629 0.46903 0.770958 0.1146
H_ H_ 0.703472 0.0809142 0.534884 0.42917
H_ H_ 0.68964 0.318825 0.530915 0.42917
H_ H_ 0.944079 0.079385 0.544366 0.42917
H_ H_ 0.932236 0.307537 0.540553 0.42917
H_ H_ 0.656198 0.105268 0.554023 0.1146
H_ H_ 0.656303 0.352797 0.558521 0.1146
H_ H_ 0.895311 0.102286 0.562995 0.1146
H_ H_ 0.904002 0.352897 0.558464 0.1146
H_ H_ 0.638166 0.0508454 0.596461 0.1146
H_ H_ 0.611846 0.294196 0.558605 0.1146
H_ H_ 0.869513 0.0469715 0.609274 0.1146
H_ H_ 0.880455 0.307615 0.619402 0.1146
H_ H_ 0.61018 0.0748237 0.594151 0.1146
H_ H_ 0.637625 0.303429 0.611894 0.1146
H_ H_ 0.85448 0.0818375 0.619614 0.1146
H_ H_ 0.856987 0.331708 0.609811 0.1146
H_ H_ 0.617288 0.0501766 0.542292 0.1146
H_ H_ 0.609884 0.326847 0.60635 0.1146
H_ H_ 0.839702 0.0496518 0.571687 0.1146
H_ H_ 0.854213 0.293527 0.570844 0.1146
H_ H_ 0.576753 0.224909 0.900873 0.42917
H_ H_ 0.586413 0.473969 0.894226 0.42917
H_ H_ 0.82099 0.221469 0.899886 0.42917
H_ H_ 0.836929 0.473468 0.881532 0.42917
H_ H_ 0.608312 0.117228 0.52671 0.1146
H_ H_ 0.609584 0.365586 0.525375 0.1146
H_ H_ 0.860836 0.111942 0.519375 0.1146
H_ H_ 0.863896 0.362636 0.520347 0.1146
H_ H_ 0.736296 0.034559 0.553875 0.1146
H_ H_ 0.738015 0.286459 0.556538 0.1146
H_ H_ 0.97859 0.0424646 0.550467 0.1146
H_ H_ 0.99033 0.282768 0.550759 0.1146
H_ H_ 0.740501 0.0292673 0.974314 0.1146
H_ H_ 0.742945 0.273063 0.973174 0.1146
H_ H_ 0.997541 0.0274671 0.976836 0.1146
H_ H_ -0.002314999999999956 0.270742 0.978843 0.1146
H_ H_ 0.630692 0.132777 0.696021 0.42917
H_ H_ 0.618878 0.390108 0.712766 0.42917
H_ H_ 0.878874 0.131189 0.695651 0.42917
H_ H_ 0.880266 0.386702 0.688467 0.42917
H_ H_ 0.553874 0.120964 0.69683 0.1146
H_ H_ 0.5528 0.381668 0.69737 0.1146
H_ H_ 0.80607 0.127372 0.698418 0.1146
H_ H_ 0.807955 0.382378 0.696118 0.1146
H_ H_ 0.563855 0.177675 0.707662 0.1146
H_ H_ 0.560708 0.438296 0.677452 0.1146
H_ H_ 0.849932 0.191913 0.72762 0.1146
H_ H_ 0.832149 0.445799 0.725724 0.1146
H_ H_ 0.609678 0.182145 0.739789 0.1146
H_ H_ 0.579772 0.44147 0.727063 0.1146
H_ H_ 0.864547 0.192937 0.674945 0.1146
H_ H_ 0.864626 0.446947 0.681846 0.1146
H_ H_ 0.614361 0.190663 0.690608 0.1146
H_ H_ 0.613904 0.451758 0.688372 0.1146
H_ H_ 0.814163 0.180751 0.683512 0.1146
H_ H_ 0.812022 0.433634 0.672955 0.1146
H_ H_ 0.616834 0.0357902 0.875568 0.42917
H_ H_ 0.614411 0.283593 0.868658 0.42917
H_ H_ 0.865805 0.0362989 0.872334 0.42917
H_ H_ 0.864916 0.283023 0.86473 0.42917
H_ H_ 0.49988 0.113859 0.769755 0.1146
H_ H_ 0.495019 0.35891 0.76883 0.1146
H_ H_ 0.738134 0.106436 0.774886 0.1146
H_ H_ 0.753096 0.363264 0.776069 0.1146
H_ H_ 0.55754 0.0424715 0.807303 0.1146
H_ H_ 0.558909 0.28843 0.801502 0.1146
H_ H_ 0.816183 0.0467614 0.803208 0.1146
H_ H_ 0.807716 0.289855 0.810265 0.1146
H_ H_ 0.518119 0.0219855 0.732431 0.1146
H_ H_ 0.525612 0.273645 0.729803 0.1146
H_ H_ 0.783682 0.0297008 0.731018 0.1146
H_ H_ 0.7736 0.272761 0.739247 0.1146
H_ H_ 0.570924 0.190398 0.965439 0.42917
H_ H_ 0.567972 0.43348 0.961434 0.42917
H_ H_ 0.820562 0.185119 0.970763 0.42917
H_ H_ 0.82838 0.437131 0.970965 0.42917
H_ H_ 0.600318 0.14733 0.935142 0.1146
H_ H_ 0.594437 0.393259 0.93759 0.1146
H_ H_ 0.846164 0.145584 0.937221 0.1146
H_ H_ 0.859755 0.398135 0.943387 0.1146
H_ H_ 0.622845 0.210611 0.90974 0.1146
H_ H_ 0.645444 0.416288 0.88746 0.1146
H_ H_ 0.895598 0.20642 0.943041 0.1146
H_ H_ 0.895638 0.417816 0.879611 0.1146
H_ H_ 0.638889 0.178996 0.880745 0.1146
H_ H_ 0.658206 0.447747 0.934961 0.1146
H_ H_ 0.866077 0.196446 0.890631 0.1146
H_ H_ 0.906654 0.44713 0.930142 0.1146
H_ H_ 0.654641 0.200039 0.935783 0.1146
H_ H_ 0.626357 0.445372 0.888422 0.1146
H_ H_ 0.89366 0.171753 0.895055 0.1146
H_ H_ 0.874173 0.446854 0.888704 0.1146
H_ H_ 0.678446 0.0250779 0.589105 0.42917
H_ H_ 0.677721 0.277352 0.60521 0.42917
H_ H_ 0.920563 0.0276205 0.59787 0.42917
H_ H_ 0.933123 0.279527 0.588852 0.42917
H_ H_ 0.638516 0.139122 0.980868 0.1146
H_ H_ 0.644483 0.391446 0.978393 0.1146
H_ H_ 0.88798 0.138442 0.978926 0.1146
H_ H_ 0.91014 0.377238 0.988854 0.1146
H_ H_ 0.513592 0.209788 0.947466 0.1146
H_ H_ 0.519282 0.462376 0.949636 0.1146
H_ H_ 0.766564 0.214993 0.952366 0.1146
H_ H_ 0.775297 0.459411 0.953976 0.1146
H_ H_ 0.49786 0.233612 0.516978 0.1146
H_ H_ 0.497815 0.47405 0.520227 0.1146
H_ H_ 0.756892 0.224692 0.521499 0.1146
H_ H_ 0.760292 0.474041 0.520508 0.1146
H_ H_ 0.621891 0.123029 0.7938 0.42917
H_ H_ 0.618227 0.349723 0.795275 0.42917
H_ H_ 0.878781 0.127632 0.805775 0.42917
H_ H_ 0.88295 0.365616 0.785394 0.42917
H_ H_ 0.692803 0.132789 0.806321 0.1146
H_ H_ 0.70131 0.375254 0.803934 0.1146
H_ H_ 0.948208 0.126713 0.801975 0.1146
H_ H_ 0.947526 0.371346 0.803927 0.1146
H_ H_ 0.647345 0.0693588 0.770733 0.1146
H_ H_ 0.672186 0.318266 0.7729 0.1146
H_ H_ 0.939611 0.0715102 0.805294 0.1146
H_ H_ 0.93286 0.312024 0.821765 0.1146
H_ H_ 0.633396 0.0650916 0.818648 0.1146
H_ H_ 0.645009 0.307722 0.813954 0.1146
H_ H_ 0.908633 0.0680044 0.76304 0.1146
H_ H_ 0.91707 0.309531 0.770459 0.1146
H_ H_ 0.687315 0.0773356 0.81192 0.1146
H_ H_ 0.695545 0.320905 0.820175 0.1146
H_ H_ 0.884143 0.0580112 0.807333 0.1146
H_ H_ 0.881349 0.304712 0.806652 0.1146
H_ H_ 0.64271 0.219184 0.634572 0.42917
H_ H_ 0.63718 0.46927 0.637308 0.42917
H_ H_ 0.88722 0.219584 0.625816 0.42917
H_ H_ 0.886856 0.467628 0.625222 0.42917
C_ C_ 0.741466 0.153839 0.719255 -0.12085
C_ C_ 0.732771 0.402416 0.724473 -0.12085
C_ C_ 0.981265 0.153035 0.724819 -0.12085
C_ C_ 0.99696 0.404527 0.720142 -0.12085
C_ C_ 0.507283 0.199304 0.805042 0.6956
C_ C_ 0.517237 0.448411 0.802909 0.6956
C_ C_ 0.764941 0.198448 0.795499 0.6956
C_ C_ 0.760608 0.447871 0.800682 0.6956
C_ C_ 0.742416 0.184008 0.752292 -0.16651
C_ C_ 0.737883 0.434871 0.755799 -0.16651
C_ C_ 0.991444 0.185821 0.754407 -0.16651
C_ C_ 0.996046 0.433058 0.753714 -0.16651
C_ C_ 0.703847 0.19152 0.700216 -0.12085
C_ C_ 0.705274 0.445358 0.700566 -0.12085
C_ C_ 0.961971 0.199903 0.698223 -0.12085
C_ C_ 0.957274 0.441564 0.70068 -0.12085
C_ C_ 0.726227 0.147205 0.676044 0.16698
C_ C_ 0.72269 0.396438 0.680707 0.16698
C_ C_ 0.968657 0.145648 0.680155 0.16698
C_ C_ 0.97893 0.396476 0.67665 0.16698
C_ C_ 0.688468 0.120885 0.617527 0.36401
C_ C_ 0.686959 0.369782 0.619677 0.36401
C_ C_ 0.930899 0.119164 0.621142 0.36401
C_ C_ 0.939199 0.368127 0.617878 0.36401
C_ C_ 0.711399 0.168842 0.667554 0.16698
C_ C_ 0.707744 0.41741 0.669325 0.16698
C_ C_ 0.957423 0.167586 0.66806 0.16698
C_ C_ 0.962811 0.417201 0.66693 0.16698
C_ C_ 0.72184 0.201571 0.74105 -0.12085
C_ C_ 0.725499 0.456428 0.742749 -0.12085
C_ C_ 0.977319 0.207697 0.742082 -0.12085
C_ C_ 0.974985 0.450511 0.743814 -0.12085
C_ C_ 0.665824 0.0935622 0.57501 0.15351
C_ C_ 0.665415 0.342029 0.577923 0.15351
C_ C_ 0.905946 0.0908362 0.583203 0.15351
C_ C_ 0.910908 0.339324 0.579523 0.15351
C_ C_ 0.629781 0.0641632 0.576987 -0.35079
C_ C_ 0.630081 0.314796 0.590145 -0.35079
C_ C_ 0.866752 0.0656448 0.59506 -0.35079
C_ C_ 0.87378 0.316846 0.595374 -0.35079
C_ C_ 0.579851 0.100023 0.529408 -0.12085
C_ C_ 0.580063 0.3489 0.527458 -0.12085
C_ C_ 0.832614 0.0978657 0.524491 -0.12085
C_ C_ 0.834023 0.347759 0.526185 -0.12085
C_ C_ 0.563275 0.0592567 0.95019 0.6956
C_ C_ 0.563819 0.313189 0.950246 0.6956
C_ C_ 0.813739 0.0595852 0.947357 0.6956
C_ C_ 0.813867 0.307641 0.946774 0.6956
C_ C_ 0.551426 0.068831 0.993433 -0.16651
C_ C_ 0.55092 0.32411 0.99241 -0.16651
C_ C_ 0.801684 0.0715966 0.991118 -0.16651
C_ C_ 0.801587 0.31935 0.991216 -0.16651
C_ C_ 0.761342 0.054539 0.544781 -0.12085
C_ C_ 0.765367 0.304315 0.549045 -0.12085
C_ C_ 0.00608512 0.0583579 0.545194 -0.12085
C_ C_ 0.0114076 0.303854 0.542635 -0.12085
C_ C_ 0.567024 0.107054 0.567242 0.16698
C_ C_ 0.566357 0.359955 0.566418 0.16698
C_ C_ 0.821102 0.107001 0.565391 0.16698
C_ C_ 0.821036 0.357802 0.564628 0.16698
C_ C_ 0.563747 0.123949 0.634661 0.36401
C_ C_ 0.567359 0.378094 0.634457 0.36401
C_ C_ 0.818717 0.123846 0.632255 0.36401
C_ C_ 0.819676 0.376161 0.633498 0.36401
C_ C_ 0.529096 0.0868686 0.574168 0.16698
C_ C_ 0.529567 0.338548 0.575495 0.16698
C_ C_ 0.785445 0.0854851 0.573913 0.16698
C_ C_ 0.786792 0.336413 0.575694 0.16698
C_ C_ 0.517992 0.0448962 0.00412746 -0.12085
C_ C_ 0.515595 0.302423 0.00468746 -0.12085
C_ C_ 0.763507 0.0523751 -0.00150316 -0.12085
C_ C_ 0.764413 0.297527 0.0001100000000000545 -0.12085
C_ C_ 0.579398 0.135816 0.68398 0.15351
C_ C_ 0.578588 0.396733 0.681005 0.15351
C_ C_ 0.831284 0.140457 0.680381 0.15351
C_ C_ 0.830926 0.396114 0.680171 0.15351
C_ C_ 0.592554 0.174264 0.706028 -0.35079
C_ C_ 0.584097 0.433685 0.693193 -0.35079
C_ C_ 0.841278 0.178057 0.692623 -0.35079
C_ C_ 0.835806 0.433011 0.691986 -0.35079
C_ C_ 0.506788 0.0965322 0.779585 -0.12085
C_ C_ 0.506285 0.342404 0.777354 -0.12085
C_ C_ 0.756731 0.0950805 0.779565 -0.12085
C_ C_ 0.762662 0.346348 0.782441 -0.12085
C_ C_ 0.73651 0.0535093 0.699232 0.6956
C_ C_ 0.740494 0.304235 0.704715 0.6956
C_ C_ 0.989611 0.0523923 0.696246 0.6956
C_ C_ 0.985539 0.300864 0.700781 0.6956
C_ C_ 0.502008 0.064499 0.748788 -0.16651
C_ C_ 0.501405 0.310995 0.744948 -0.16651
C_ C_ 0.758883 0.0682208 0.744121 -0.16651
C_ C_ 0.759084 0.315603 0.750322 -0.16651
C_ C_ 0.541379 0.0567553 0.800042 -0.12085
C_ C_ 0.542512 0.302677 0.796988 -0.12085
C_ C_ 0.80199 0.0614149 0.795618 -0.12085
C_ C_ 0.793457 0.304326 0.802571 -0.12085
C_ C_ 0.527172 0.107106 0.822486 0.16698
C_ C_ 0.525436 0.351132 0.819326 0.16698
C_ C_ 0.776773 0.104442 0.820105 0.16698
C_ C_ 0.778643 0.354235 0.824707 0.16698
C_ C_ 0.561019 0.130439 0.882733 0.36401
C_ C_ 0.563014 0.377809 0.877789 0.36401
C_ C_ 0.811693 0.130942 0.881108 0.36401
C_ C_ 0.817973 0.381518 0.885061 0.36401
C_ C_ 0.543797 0.0874326 0.829978 0.16698
C_ C_ 0.543178 0.331453 0.828445 0.16698
C_ C_ 0.795058 0.0854713 0.828443 0.16698
C_ C_ 0.793565 0.333703 0.83412 0.16698
C_ C_ 0.520246 0.0446823 0.758897 -0.12085
C_ C_ 0.522655 0.292644 0.756141 -0.12085
C_ C_ 0.780878 0.0506547 0.755027 -0.12085
C_ C_ 0.773349 0.294829 0.762389 -0.12085
C_ C_ 0.590525 0.161792 0.91927 0.15351
C_ C_ 0.590618 0.406705 0.916568 0.15351
C_ C_ 0.837681 0.159555 0.920491 0.15351
C_ C_ 0.846863 0.409702 0.922327 0.15351
C_ C_ 0.629332 0.188973 0.910335 -0.35079
C_ C_ 0.631838 0.431299 0.908567 -0.35079
C_ C_ 0.876206 0.186684 0.91256 -0.35079
C_ C_ 0.881412 0.430349 0.904092 -0.35079
C_ C_ 0.667313 0.152524 0.974835 -0.12085
C_ C_ 0.674277 0.40411 0.976137 -0.12085
C_ C_ 0.918075 0.15151 0.972181 -0.12085
C_ C_ 0.922311 0.39648 0.974427 -0.12085
C_ C_ 0.692578 0.197806 0.551225 0.6956
C_ C_ 0.686258 0.445097 0.551112 0.6956
C_ C_ 0.942404 0.19404 0.55251 0.6956
C_ C_ 0.939495 0.440708 0.551875 0.6956
C_ C_ 0.70176 0.183736 0.507077 -0.16651
C_ C_ 0.699154 0.433859 0.507609 -0.16651
C_ C_ 0.954483 0.182965 0.508928 -0.16651
C_ C_ 0.947164 0.4319 0.505786 -0.16651
C_ C_ 0.492484 0.190142 0.95845 -0.12085
C_ C_ 0.493854 0.442264 0.957258 -0.12085
C_ C_ 0.740413 0.194009 0.957334 -0.12085
C_ C_ 0.748658 0.443065 0.959009 -0.12085
C_ C_ 0.681104 0.143962 0.935926 0.16698
C_ C_ 0.68702 0.390918 0.93624 0.16698
C_ C_ 0.93073 0.14343 0.931314 0.16698
C_ C_ 0.933702 0.388693 0.93197 0.16698
C_ C_ 0.681241 0.130402 0.867989 0.36401
C_ C_ 0.68758 0.378261 0.869207 0.36401
C_ C_ 0.934573 0.12753 0.864456 0.36401
C_ C_ 0.933122 0.374692 0.865787 0.36401
C_ C_ 0.717029 0.163438 0.926334 0.16698
C_ C_ 0.724752 0.412338 0.928632 0.16698
C_ C_ 0.967146 0.163661 0.924255 0.16698
C_ C_ 0.968803 0.411948 0.922073 0.16698
C_ C_ 0.739732 0.201562 0.498299 -0.12085
C_ C_ 0.734443 0.455057 0.497474 -0.12085
C_ C_ 0.99393 0.202824 0.501199 -0.12085
C_ C_ 0.985137 0.450867 0.497249 -0.12085
C_ C_ 0.668055 0.118197 0.821224 0.15351
C_ C_ 0.67614 0.362297 0.821013 0.15351
C_ C_ 0.922473 0.112123 0.816928 0.15351
C_ C_ 0.920358 0.35619 0.818698 0.15351
C_ C_ 0.659896 0.080769 0.805072 -0.35079
C_ C_ 0.672428 0.326044 0.806766 -0.35079
C_ C_ 0.913485 0.0742859 0.798515 -0.35079
C_ C_ 0.912506 0.318458 0.805276 -0.35079
N_ N_ 0.713592 0.116927 0.642613 -0.51457
N_ N_ 0.709115 0.36542 0.648782 -0.51457
N_ N_ 0.952071 0.113606 0.650362 -0.51457
N_ N_ 0.965338 0.365641 0.645318 -0.51457
N_ N_ 0.686562 0.152712 0.630706 -0.51457
N_ N_ 0.683331 0.400736 0.632661 -0.51457
N_ N_ 0.933736 0.151692 0.630118 -0.51457
N_ N_ 0.937629 0.39935 0.631144 -0.51457
N_ N_ 0.590014 0.132398 0.60552 -0.51457
N_ N_ 0.590161 0.386161 0.603237 -0.51457
N_ N_ 0.844428 0.132257 0.601664 -0.51457
N_ N_ 0.844085 0.384562 0.603844 -0.51457
N_ N_ 0.526197 0.0970144 0.618292 -0.51457
N_ N_ 0.530644 0.348664 0.618025 -0.51457
N_ N_ 0.782784 0.0952159 0.615607 -0.51457
N_ N_ 0.785111 0.347661 0.618081 -0.51457
N_ N_ 0.53891 0.13635 0.856155 -0.51457
N_ N_ 0.538056 0.381763 0.851825 -0.51457
N_ N_ 0.789999 0.134715 0.851388 -0.51457
N_ N_ 0.794713 0.385222 0.856584 -0.51457
N_ N_ 0.567077 0.101664 0.867829 -0.51457
N_ N_ 0.568505 0.348623 0.864536 -0.51457
N_ N_ 0.813824 0.0992754 0.868195 -0.51457
N_ N_ 0.817591 0.34974 0.871305 -0.51457
N_ N_ 0.657261 0.121262 0.897138 -0.51457
N_ N_ 0.663811 0.3691 0.899243 -0.51457
N_ N_ 0.908645 0.119741 0.892729 -0.51457
N_ N_ 0.909635 0.363611 0.896309 -0.51457
N_ N_ 0.71757 0.156891 0.884068 -0.51457
N_ N_ 0.724789 0.404985 0.885595 -0.51457
N_ N_ 0.970191 0.156333 0.882455 -0.51457
N_ N_ 0.968677 0.403668 0.880876 -0.51457
O_ O_ 0.518543 0.231639 0.827712 -0.61362
O_ O_ 0.522171 0.478324 0.831378 -0.61362
O_ O_ 0.77312 0.228897 0.820187 -0.61362
O_ O_ 0.769443 0.478859 0.826572 -0.61362
O_ O_ 0.553867 0.220313 0.885871 -0.98607
O_ O_ 0.562478 0.468277 0.88468 -0.98607
O_ O_ 0.800204 0.216232 0.882325 -0.98607
O_ O_ 0.812611 0.468538 0.878973 -0.98607
O_ O_ 0.523076 0.18212 0.818915 -0.61362
O_ O_ 0.525595 0.426921 0.81315 -0.61362
O_ O_ 0.770129 0.177031 0.811958 -0.61362
O_ O_ 0.769858 0.427224 0.813262 -0.61362
O_ O_ 0.687931 0.081471 0.553978 -0.55956
O_ O_ 0.684539 0.326338 0.556327 -0.55956
O_ O_ 0.924459 0.0747175 0.560426 -0.55956
O_ O_ 0.925876 0.319092 0.562308 -0.55956
O_ O_ 0.540369 0.0301741 0.920006 -0.61362
O_ O_ 0.54554 0.281482 0.924052 -0.61362
O_ O_ 0.792838 0.0277246 0.923207 -0.61362
O_ O_ 0.791014 0.276285 0.919208 -0.61362
O_ O_ 0.59555 0.0372927 0.871994 -0.98607
O_ O_ 0.594869 0.288662 0.871328 -0.98607
O_ O_ 0.844737 0.0389466 0.87592 -0.98607
O_ O_ 0.844254 0.285874 0.86822 -0.98607
O_ O_ 0.594172 0.0815602 0.938822 -0.61362
O_ O_ 0.591378 0.337986 0.938149 -0.61362
O_ O_ 0.846422 0.0789474 0.936506 -0.61362
O_ O_ 0.847464 0.325702 0.937377 -0.61362
O_ O_ 0.606133 0.127589 0.694509 -0.55956
O_ O_ 0.608891 0.394487 0.692057 -0.55956
O_ O_ 0.865076 0.1405 0.688647 -0.55956
O_ O_ 0.862289 0.394896 0.694697 -0.55956
O_ O_ 0.732833 0.0238939 0.673822 -0.61362
O_ O_ 0.736832 0.274697 0.678217 -0.61362
O_ O_ 0.974323 0.0202948 0.671265 -0.61362
O_ O_ 0.983551 0.272475 0.672225 -0.61362
O_ O_ 0.694988 0.0308443 0.610894 -0.98607
O_ O_ 0.699994 0.282781 0.619201 -0.98607
O_ O_ 0.939797 0.0312896 0.616528 -0.98607
O_ O_ 0.948082 0.284555 0.612203 -0.98607
O_ O_ 0.728407 0.0742021 0.684335 -0.61362
O_ O_ 0.737024 0.328235 0.691158 -0.61362
O_ O_ 0.980767 0.0742688 0.686319 -0.61362
O_ O_ 0.978531 0.323432 0.68851 -0.61362
O_ O_ 0.570368 0.177318 0.941556 -0.55956
O_ O_ 0.575165 0.426398 0.936641 -0.55956
O_ O_ 0.819652 0.17504 0.944244 -0.55956
O_ O_ 0.833018 0.430098 0.945048 -0.55956
O_ O_ 0.7183 0.22706 0.57789 -0.61362
O_ O_ 0.710955 0.472908 0.580197 -0.61362
O_ O_ 0.96707 0.222284 0.584354 -0.61362
O_ O_ 0.959986 0.471674 0.579906 -0.61362
O_ O_ 0.662903 0.215079 0.630197 -0.98607
O_ O_ 0.65371 0.46294 0.627464 -0.98607
O_ O_ 0.907368 0.215778 0.623977 -0.98607
O_ O_ 0.905455 0.462223 0.625308 -0.98607
O_ O_ 0.660703 0.176837 0.563943 -0.61362
O_ O_ 0.656179 0.423142 0.561842 -0.61362
O_ O_ 0.913363 0.169947 0.562388 -0.61362
O_ O_ 0.907893 0.418125 0.561952 -0.61362
O_ O_ 0.635504 0.118139 0.81013 -0.55956
O_ O_ 0.64302 0.359756 0.808708 -0.55956
O_ O_ 0.890514 0.11448 0.80745 -0.55956
O_ O_ 0.89038 0.359104 0.804943 -0.55956
Zn Zn 0.523141 0.671755 0.366572 0.91541
Zn Zn 0.526125 0.925522 0.366101 0.91541
Zn Zn 0.771194 0.671245 0.360537 0.91541
Zn Zn 0.77536 0.92406 0.365308 0.91541
Zn Zn 0.60224 0.578145 0.386962 0.91541
Zn Zn 0.606176 0.831834 0.388442 0.91541
Zn Zn 0.855685 0.582245 0.382242 0.91541
Zn Zn 0.857353 0.830304 0.384148 0.91541
Zn Zn 0.721918 0.575469 0.134979 0.91541
Zn Zn 0.727763 0.827998 0.141303 0.91541
Zn Zn 0.975763 0.575212 0.137308 0.91541
Zn Zn 0.973306 0.826018 0.135852 0.91541
Zn Zn 0.64433 0.67193 0.116743 0.91541
Zn Zn 0.645393 0.920361 0.118044 0.91541
Zn Zn 0.895824 0.667575 0.110377 0.91541
Zn Zn 0.897135 0.923466 0.115419 0.91541
Zn Zn 0.550175 0.500138 0.374551 1.11764
Zn Zn 0.552335 0.752191 0.37357 1.11764
Zn Zn 0.807444 0.502325 0.372853 1.11764
Zn Zn 0.803548 0.751315 0.373618 1.11764
Zn Zn 0.696741 1.00045 0.129158 1.11764
Zn Zn 0.697207 0.750189 0.126025 1.11764
Zn Zn 0.948597 1.000221108 0.12674 1.11764
Zn Zn 0.947801 0.747399 0.123774 1.11764
H_ H_ 0.751971 0.6381 0.2282 0.1146
H_ H_ 0.753313 0.893522 0.235472 0.1146
H_ H_ -0.0011360000000000259 0.639252 0.227885 0.1146
H_ H_ -0.0135915 0.884735 0.232185 0.1146
H_ H_ 0.691829 0.712332 0.200616 0.1146
H_ H_ 0.694962 0.962346 0.191736 0.1146
H_ H_ 0.950789 0.713376 0.186112 0.1146
H_ H_ 0.950959 0.963806 0.186839 0.1146
H_ H_ 0.727604 0.726442 0.272433 0.1146
H_ H_ 0.726264 0.979818 0.268946 0.1146
H_ H_ 0.983103 0.728378 0.258635 0.1146
H_ H_ 0.975402 0.978845 0.265939 0.1146
H_ H_ 0.68825 0.577331 0.0354654 0.42917
H_ H_ 0.681056 0.815725 0.0449936 0.42917
H_ H_ 0.91659 0.561304 0.0341835 0.42917
H_ H_ 0.941872 0.83005 0.0307565 0.42917
H_ H_ 0.644575 0.606057 0.0623682 0.1146
H_ H_ 0.647161 0.848002 0.0669469 0.1146
H_ H_ 0.892542 0.597149 0.0666113 0.1146
H_ H_ 0.899445 0.857209 0.0601893 0.1146
H_ H_ 0.627537 0.546567 0.0968532 0.1146
H_ H_ 0.600761 0.825135 0.114926 0.1146
H_ H_ 0.846429 0.577296 0.115405 0.1146
H_ H_ 0.857182 0.800204 0.0474202 0.1146
H_ H_ 0.601774 0.575385 0.108915 0.1146
H_ H_ 0.601325 0.788188 0.0726979 0.1146
H_ H_ 0.842988 0.542812 0.0687996 0.1146
H_ H_ 0.881872 0.795091 0.0890432 0.1146
H_ H_ 0.601687 0.548705 0.0525576 0.1146
H_ H_ 0.62798 0.80648 0.131959 0.1146
H_ H_ 0.87548 0.553952 0.121654 0.1146
H_ H_ 0.857727 0.822514 0.103281 0.1146
H_ H_ 0.575308 0.723304 0.398993 0.42917
H_ H_ 0.58023 0.976868 0.394972 0.42917
H_ H_ 0.821666 0.720832 0.400465 0.42917
H_ H_ 0.821915 0.973883 0.402214 0.42917
H_ H_ 0.601366 0.613061 0.0222302 0.1146
H_ H_ 0.612899 0.863842 0.0212223 0.1146
H_ H_ 0.84328 0.621454 0.0114522 0.1146
H_ H_ 0.858715 0.866744 0.0233323 0.1146
H_ H_ 0.725406 0.541332 0.0548222 0.1146
H_ H_ 0.726555 0.796823 0.0514448 0.1146
H_ H_ 0.98075 0.535177 0.0530182 0.1146
H_ H_ 0.974577 0.790666 0.0489421 0.1146
H_ H_ 0.750521 0.524416 0.480731 0.1146
H_ H_ 0.751963 0.774324 0.479622 0.1146
H_ H_ 0.99941012 0.514346 0.481344 0.1146
H_ H_ -0.00560566 0.771389 0.480035 0.1146
H_ H_ 0.621579 0.633129 0.185312 0.42917
H_ H_ 0.615915 0.890603 0.219927 0.42917
H_ H_ 0.878342 0.636701 0.198554 0.42917
H_ H_ 0.862497 0.855574 0.184689 0.42917
H_ H_ 0.55108 0.631683 0.200406 0.1146
H_ H_ 0.545785 0.879046 0.192384 0.1146
H_ H_ 0.798387 0.626783 0.194517 0.1146
H_ H_ 0.807275 0.875213 0.194694 0.1146
H_ H_ 0.611161 0.696613 0.186979 0.1146
H_ H_ 0.582293 0.939931 0.224634 0.1146
H_ H_ 0.817219 0.686292 0.193702 0.1146
H_ H_ 0.831417 0.932714 0.219811 0.1146
H_ H_ 0.55907 0.687383 0.194178 0.1146
H_ H_ 0.618625 0.943531 0.188566 0.1146
H_ H_ 0.840722 0.682061 0.236389 0.1146
H_ H_ 0.870548 0.923746 0.239074 0.1146
H_ H_ 0.594152 0.69188 0.231633 0.1146
H_ H_ 0.566207 0.932258 0.170246 0.1146
H_ H_ 0.866896 0.693058 0.196902 0.1146
H_ H_ 0.877405 0.941507 0.195415 0.1146
H_ H_ 0.612928 0.530022 0.355853 0.42917
H_ H_ 0.610891 0.781055 0.365702 0.42917
H_ H_ 0.868716 0.536689 0.35852 0.42917
H_ H_ 0.864695 0.780813 0.358827 0.42917
H_ H_ 0.492952 0.60784 0.276315 0.1146
H_ H_ 0.497512 0.863207 0.275322 0.1146
H_ H_ 0.747269 0.610564 0.270285 0.1146
H_ H_ 0.744352 0.860328 0.275968 0.1146
H_ H_ 0.542683 0.533712 0.313939 0.1146
H_ H_ 0.554384 0.789113 0.310353 0.1146
H_ H_ 0.80549 0.538563 0.306238 0.1146
H_ H_ 0.81031 0.79359 0.309118 0.1146
H_ H_ 0.512238 0.515592 0.237313 0.1146
H_ H_ 0.521119 0.772645 0.235868 0.1146
H_ H_ 0.772026 0.520504 0.229884 0.1146
H_ H_ 0.768211 0.771397 0.239593 0.1146
H_ H_ 0.551051 0.66128 0.467971 0.42917
H_ H_ 0.554624 0.917348 0.461311 0.42917
H_ H_ 0.813096 0.686133 0.459681 0.42917
H_ H_ 0.822094 0.930619 0.462836 0.42917
H_ H_ 0.596029 0.639576 0.441625 0.1146
H_ H_ 0.601198 0.897497 0.445448 0.1146
H_ H_ 0.847893 0.648745 0.438441 0.1146
H_ H_ 0.859545 0.903143 0.432989 0.1146
H_ H_ 0.651309 0.67978 0.407821 0.1146
H_ H_ 0.645264 0.950243 0.457021 0.1146
H_ H_ 0.891958 0.708628 0.440758 0.1146
H_ H_ 0.899905 0.92477 0.379996 0.1146
H_ H_ 0.635542 0.702798 0.450743 0.1146
H_ H_ 0.630404 0.961928 0.415694 0.1146
H_ H_ 0.869179 0.698059 0.3867 0.1146
H_ H_ 0.900696 0.961104 0.421825 0.1146
H_ H_ 0.614574 0.693508 0.396133 0.1146
H_ H_ 0.649062 0.933327 0.399164 0.1146
H_ H_ 0.9023 0.681922 0.398447 0.1146
H_ H_ 0.871459 0.943233 0.371766 0.1146
H_ H_ 0.664235 0.52162 0.103801 0.42917
H_ H_ 0.670244 0.782149 0.109393 0.42917
H_ H_ 0.923906 0.526396 0.0933713 0.42917
H_ H_ 0.923759 0.774739 0.0942413 0.42917
H_ H_ 0.644928 0.635897 0.486015 0.1146
H_ H_ 0.645899 0.884172 0.48052 0.1146
H_ H_ 0.887503 0.639676 0.473251 0.1146
H_ H_ 0.894118 0.893757 0.479227 0.1146
H_ H_ 0.525033 0.704231 0.449852 0.1146
H_ H_ 0.515512 0.967219 0.446977 0.1146
H_ H_ 0.765248 0.70918 0.443467 0.1146
H_ H_ 0.774366 0.959858 0.447784 0.1146
H_ H_ 0.49637 0.730186 0.0211456 0.1146
H_ H_ 0.499904 0.977244 0.020664 0.1146
H_ H_ 0.735046 0.733532 0.0106288 0.1146
H_ H_ 0.744641 0.980793 0.0204293 0.1146
H_ H_ 0.619997 0.624678 0.307695 0.42917
H_ H_ 0.62932 0.874394 0.316801 0.42917
H_ H_ 0.869781 0.615316 0.303859 0.42917
H_ H_ 0.876343 0.859364 0.292668 0.42917
H_ H_ 0.692859 0.627905 0.305657 0.1146
H_ H_ 0.705222 0.877706 0.306659 0.1146
H_ H_ 0.947321 0.630878 0.303716 0.1146
H_ H_ 0.951496 0.875578 0.310369 0.1146
H_ H_ 0.675459 0.569278 0.292541 0.1146
H_ H_ 0.668596 0.818836 0.270173 0.1146
H_ H_ 0.881374 0.561582 0.296248 0.1146
H_ H_ 0.917414 0.814256 0.270891 0.1146
H_ H_ 0.6383 0.570252 0.262154 0.1146
H_ H_ 0.63885 0.812461 0.310352 0.1146
H_ H_ 0.932718 0.569209 0.298304 0.1146
H_ H_ 0.88264 0.808983 0.305958 0.1146
H_ H_ 0.62808 0.562269 0.312056 0.1146
H_ H_ 0.690394 0.818002 0.316103 0.1146
H_ H_ 0.90742 0.576796 0.258529 0.1146
H_ H_ 0.936655 0.816063 0.31989 0.1146
H_ H_ 0.634281 0.718679 0.127241 0.42917
H_ H_ 0.634763 0.969726 0.139962 0.42917
H_ H_ 0.890873 0.717956 0.144256 0.42917
H_ H_ 0.886503 0.972733 0.133262 0.42917
C_ C_ 0.737326 0.653018 0.221493 -0.12085
C_ C_ 0.738951 0.907586 0.227406 -0.12085
C_ C_ 0.990834 0.655365 0.216981 -0.12085
C_ C_ 0.988151 0.90502 0.220898 -0.12085
C_ C_ 0.514559 0.697561 0.300658 0.6956
C_ C_ 0.515525 0.948516 0.297782 0.6956
C_ C_ 0.769349 0.698369 0.297221 0.6956
C_ C_ 0.762469 0.95105 0.300644 0.6956
C_ C_ 0.744814 0.68568 0.253875 -0.16651
C_ C_ 0.743549 0.939987 0.257048 -0.16651
C_ C_ 0.999252 0.688013 0.246937 -0.16651
C_ C_ 0.993567 0.936416 0.25435 -0.16651
C_ C_ 0.700966 0.694436 0.207547 -0.12085
C_ C_ 0.707107 0.947542 0.202601 -0.12085
C_ C_ 0.963608 0.698061 0.193544 -0.12085
C_ C_ 0.958154 0.946572 0.200776 -0.12085
C_ C_ 0.711901 0.642362 0.183784 0.16698
C_ C_ 0.717147 0.895728 0.187373 0.16698
C_ C_ 0.974859 0.646086 0.175239 0.16698
C_ C_ 0.970189 0.896532 0.178052 0.16698
C_ C_ 0.68039 0.620421 0.120688 0.36401
C_ C_ 0.684077 0.868906 0.124786 0.36401
C_ C_ 0.931293 0.616138 0.118823 0.36401
C_ C_ 0.934903 0.871177 0.119231 0.36401
C_ C_ 0.696533 0.664193 0.176641 0.16698
C_ C_ 0.69909 0.91401 0.178097 0.16698
C_ C_ 0.959699 0.665992 0.164029 0.16698
C_ C_ 0.953017 0.916117 0.172175 0.16698
C_ C_ 0.724971 0.704382 0.2464 -0.12085
C_ C_ 0.72718 0.95908 0.24516 -0.12085
C_ C_ 0.986701 0.709375 0.234327 -0.12085
C_ C_ 0.977817 0.958469 0.242785 -0.12085
C_ C_ 0.656942 0.593889 0.0811743 0.15351
C_ C_ 0.656322 0.837627 0.0905306 0.15351
C_ C_ 0.90153 0.586038 0.0867423 0.15351
C_ C_ 0.911386 0.844709 0.0772541 0.15351
C_ C_ 0.618476 0.563437 0.0855689 -0.35079
C_ C_ 0.621098 0.813279 0.102828 -0.35079
C_ C_ 0.863366 0.563109 0.0976542 -0.35079
C_ C_ 0.874541 0.813358 0.0798041 -0.35079
C_ C_ 0.571315 0.600707 0.026525 -0.12085
C_ C_ 0.583221 0.850577 0.0272709 -0.12085
C_ C_ 0.822335 0.599979 0.0216109 -0.12085
C_ C_ 0.827723 0.855274 0.028194 -0.12085
C_ C_ 0.568553 0.555592 0.452792 0.6956
C_ C_ 0.560669 0.803611 0.448167 0.6956
C_ C_ 0.820239 0.554503 0.448112 0.6956
C_ C_ 0.816389 0.806955 0.448369 0.6956
C_ C_ 0.55627 0.567365 0.496325 -0.16651
C_ C_ 0.550379 0.813573 0.492757 -0.16651
C_ C_ 0.811947 0.567266 0.492231 -0.16651
C_ C_ 0.805164 0.817613 0.492366 -0.16651
C_ C_ 0.751363 0.555931 0.0428146 -0.12085
C_ C_ 0.754315 0.812321 0.0465988 -0.12085
C_ C_ 0.00804135 0.553908 0.0449441 -0.12085
C_ C_ 0.00168636 0.806881 0.0404203 -0.12085
C_ C_ 0.560223 0.611667 0.0668081 0.16698
C_ C_ 0.56875 0.858482 0.0666208 0.16698
C_ C_ 0.814493 0.606823 0.0636707 0.16698
C_ C_ 0.815549 0.8643 0.0671669 0.16698
C_ C_ 0.562194 0.627772 0.135378 0.36401
C_ C_ 0.563775 0.872343 0.132258 0.36401
C_ C_ 0.812677 0.623409 0.131257 0.36401
C_ C_ 0.81603 0.875671 0.134417 0.36401
C_ C_ 0.525972 0.588245 0.0776196 0.16698
C_ C_ 0.531946 0.837255 0.0723166 0.16698
C_ C_ 0.777661 0.587991 0.0716324 0.16698
C_ C_ 0.778443 0.843077 0.0758533 0.16698
C_ C_ 0.517832 0.545374 0.506579 -0.12085
C_ C_ 0.512711 0.794729 0.503739 -0.12085
C_ C_ 0.773136 0.548005 0.502873 -0.12085
C_ C_ 0.770122 0.797146 0.503545 -0.12085
C_ C_ 0.574394 0.642427 0.182434 0.15351
C_ C_ 0.573678 0.890243 0.179546 0.15351
C_ C_ 0.824861 0.638193 0.179985 0.15351
C_ C_ 0.833842 0.884943 0.179805 0.15351
C_ C_ 0.583249 0.68119 0.198019 -0.35079
C_ C_ 0.585331 0.928015 0.191106 -0.35079
C_ C_ 0.838936 0.676733 0.20118 -0.35079
C_ C_ 0.854886 0.923147 0.208342 -0.35079
C_ C_ 0.50345 0.591244 0.281376 -0.12085
C_ C_ 0.510464 0.847007 0.282994 -0.12085
C_ C_ 0.757214 0.592562 0.277536 -0.12085
C_ C_ 0.761853 0.846528 0.280294 -0.12085
C_ C_ 0.732262 0.550915 0.202138 0.6956
C_ C_ 0.738508 0.804118 0.203294 0.6956
C_ C_ 0.981248 0.549794 0.202893 0.6956
C_ C_ 0.987499 0.802059 0.200808 0.6956
C_ C_ 0.499557 0.560532 0.249166 -0.16651
C_ C_ 0.5056 0.814582 0.248894 -0.16651
C_ C_ 0.751616 0.560754 0.246161 -0.16651
C_ C_ 0.756692 0.815685 0.248668 -0.16651
C_ C_ 0.531576 0.547996 0.300538 -0.12085
C_ C_ 0.546992 0.806236 0.299888 -0.12085
C_ C_ 0.792776 0.554063 0.297099 -0.12085
C_ C_ 0.794631 0.807136 0.301819 -0.12085
C_ C_ 0.524816 0.601248 0.32166 0.16698
C_ C_ 0.534073 0.857042 0.323428 0.16698
C_ C_ 0.774236 0.600866 0.319973 0.16698
C_ C_ 0.781387 0.85614 0.322148 0.16698
C_ C_ 0.564249 0.626108 0.379087 0.36401
C_ C_ 0.568665 0.881049 0.38358 0.36401
C_ C_ 0.815929 0.630918 0.375522 0.36401
C_ C_ 0.820443 0.883142 0.380086 0.36401
C_ C_ 0.53818 0.579843 0.331114 0.16698
C_ C_ 0.550324 0.836162 0.33055 0.16698
C_ C_ 0.792387 0.581744 0.329084 0.16698
C_ C_ 0.797712 0.835886 0.331785 0.16698
C_ C_ 0.512776 0.539287 0.261222 -0.12085
C_ C_ 0.521573 0.793511 0.260042 -0.12085
C_ C_ 0.773771 0.544303 0.255629 -0.12085
C_ C_ 0.772875 0.79593 0.260843 -0.12085
C_ C_ 0.587107 0.65183 0.422116 0.15351
C_ C_ 0.590799 0.908705 0.424169 0.15351
C_ C_ 0.839457 0.659618 0.416304 0.15351
C_ C_ 0.848262 0.913655 0.415128 0.15351
C_ C_ 0.623813 0.68297 0.417629 -0.35079
C_ C_ 0.6299 0.939341 0.423883 -0.35079
C_ C_ 0.877823 0.687854 0.410875 -0.35079
C_ C_ 0.882735 0.937711 0.397634 -0.35079
C_ C_ 0.674258 0.650171 0.478613 -0.12085
C_ C_ 0.672347 0.902 0.475102 -0.12085
C_ C_ 0.920407 0.650163 0.472881 -0.12085
C_ C_ 0.923783 0.903927 0.476327 -0.12085
C_ C_ 0.678213 0.694749 0.0493871 0.6956
C_ C_ 0.679519 0.947512 0.052763 0.6956
C_ C_ 0.93813 0.693513 0.0511245 0.6956
C_ C_ 0.939434 0.947854 0.0527271 0.6956
C_ C_ 0.687431 0.683099 0.00451255 -0.16651
C_ C_ 0.688932 0.936614 0.00704088 -0.16651
C_ C_ 0.949916 0.683394 0.00858497 -0.16651
C_ C_ 0.948791 0.937934 0.00810171 -0.16651
C_ C_ 0.495982 0.690145 0.456019 -0.12085
C_ C_ 0.497824 0.947178 0.457836 -0.12085
C_ C_ 0.745804 0.690007 0.455759 -0.12085
C_ C_ 0.746331 0.942914 0.455868 -0.12085
C_ C_ 0.685573 0.637428 0.437128 0.16698
C_ C_ 0.685372 0.892029 0.437214 0.16698
C_ C_ 0.93473 0.641198 0.433337 0.16698
C_ C_ 0.934999 0.892458 0.435842 0.16698
C_ C_ 0.682572 0.624379 0.368274 0.36401
C_ C_ 0.688478 0.876579 0.36898 0.36401
C_ C_ 0.937999 0.629162 0.366467 0.36401
C_ C_ 0.93969 0.87439 0.370557 0.36401
C_ C_ 0.722063 0.65852 0.427494 0.16698
C_ C_ 0.721108 0.912557 0.42744 0.16698
C_ C_ 0.972806 0.662488 0.42649 0.16698
C_ C_ 0.971444 0.914843 0.427173 0.16698
C_ C_ 0.722094 0.707109 0.992435 -0.12085
C_ C_ 0.725614 0.958053 0.996955 -0.12085
C_ C_ 0.98428 0.70755 0.997018 -0.12085
C_ C_ 0.984664 0.959069 0.996292 -0.12085
C_ C_ 0.665866 0.614331 0.320674 0.15351
C_ C_ 0.67757 0.863111 0.321152 0.15351
C_ C_ 0.922532 0.615287 0.318281 0.15351
C_ C_ 0.925155 0.859521 0.323289 0.15351
C_ C_ 0.650298 0.578016 0.295835 -0.35079
C_ C_ 0.668803 0.826263 0.304418 -0.35079
C_ C_ 0.911966 0.578774 0.292084 -0.35079
C_ C_ 0.915706 0.822314 0.304807 -0.35079
N_ N_ 0.704571 0.61502 0.148165 -0.51457
N_ N_ 0.708319 0.866468 0.154679 -0.51457
N_ N_ 0.956653 0.613614 0.146695 -0.51457
N_ N_ 0.959195 0.866952 0.146353 -0.51457
N_ N_ 0.676539 0.65103 0.137327 -0.51457
N_ N_ 0.676297 0.897341 0.139098 -0.51457
N_ N_ 0.930312 0.647912 0.130496 -0.51457
N_ N_ 0.932576 0.902764 0.133904 -0.51457
N_ N_ 0.584958 0.637388 0.104992 -0.51457
N_ N_ 0.589869 0.880963 0.104391 -0.51457
N_ N_ 0.837231 0.631475 0.0998199 -0.51457
N_ N_ 0.838736 0.886558 0.104249 -0.51457
N_ N_ 0.526697 0.597671 0.118689 -0.51457
N_ N_ 0.527768 0.845548 0.113712 -0.51457
N_ N_ 0.775666 0.596692 0.113785 -0.51457
N_ N_ 0.778593 0.850234 0.118173 -0.51457
N_ N_ 0.540403 0.631707 0.35377 -0.51457
N_ N_ 0.543785 0.885936 0.356409 -0.51457
N_ N_ 0.79015 0.633252 0.349244 -0.51457
N_ N_ 0.793771 0.886525 0.354104 -0.51457
N_ N_ 0.564983 0.594494 0.365512 -0.51457
N_ N_ 0.572894 0.851346 0.368858 -0.51457
N_ N_ 0.820058 0.600609 0.363015 -0.51457
N_ N_ 0.821916 0.85206 0.369435 -0.51457
N_ N_ 0.660038 0.615304 0.399815 -0.51457
N_ N_ 0.662491 0.867949 0.399706 -0.51457
N_ N_ 0.912044 0.619005 0.394377 -0.51457
N_ N_ 0.913183 0.866544 0.399537 -0.51457
N_ N_ 0.721983 0.649556 0.384431 -0.51457
N_ N_ 0.724064 0.904503 0.386436 -0.51457
N_ N_ 0.973436 0.657188 0.385086 -0.51457
N_ N_ 0.976111 0.903099 0.385783 -0.51457
O_ O_ 0.522 0.728315 0.324288 -0.61362
O_ O_ 0.5253 0.979799 0.322016 -0.61362
O_ O_ 0.773389 0.727908 0.324131 -0.61362
O_ O_ 0.77306 0.982512 0.324387 -0.61362
O_ O_ 0.554147 0.717207 0.382148 -0.98607
O_ O_ 0.55744 0.970571 0.382641 -0.98607
O_ O_ 0.802917 0.715183 0.380415 -0.98607
O_ O_ 0.804604 0.967926 0.381963 -0.98607
O_ O_ 0.523179 0.676264 0.31456 -0.61362
O_ O_ 0.519453 0.925319 0.311181 -0.61362
O_ O_ 0.777706 0.676467 0.310171 -0.61362
O_ O_ 0.772766 0.929919 0.312449 -0.61362
O_ O_ 0.677907 0.580586 0.0580093 -0.55956
O_ O_ 0.673785 0.820442 0.069442 -0.55956
O_ O_ 0.915625 0.56814 0.0604049 -0.55956
O_ O_ 0.933014 0.832723 0.0545532 -0.55956
O_ O_ 0.545646 0.52311 0.427926 -0.61362
O_ O_ 0.535905 0.774058 0.418967 -0.61362
O_ O_ 0.795126 0.524792 0.421537 -0.61362
O_ O_ 0.793906 0.777622 0.420683 -0.61362
O_ O_ 0.593847 0.534102 0.365663 -0.98607
O_ O_ 0.592796 0.786901 0.375003 -0.98607
O_ O_ 0.848469 0.538616 0.368604 -0.98607
O_ O_ 0.845359 0.785613 0.367275 -0.98607
O_ O_ 0.594954 0.578505 0.439362 -0.61362
O_ O_ 0.593748 0.826937 0.439535 -0.61362
O_ O_ 0.847075 0.578722 0.435366 -0.61362
O_ O_ 0.846308 0.830649 0.43817 -0.61362
O_ O_ 0.603636 0.638273 0.195214 -0.55956
O_ O_ 0.602854 0.889846 0.197666 -0.55956
O_ O_ 0.853477 0.631352 0.18937 -0.55956
O_ O_ 0.857941 0.872943 0.18566 -0.55956
O_ O_ 0.727768 0.522088 0.174196 -0.61362
O_ O_ 0.728305 0.77178 0.178154 -0.61362
O_ O_ 0.975872 0.519279 0.177057 -0.61362
O_ O_ 0.981845 0.771985 0.173263 -0.61362
O_ O_ 0.687835 0.530712 0.117644 -0.98607
O_ O_ 0.693192 0.784341 0.119807 -0.98607
O_ O_ 0.942067 0.529995 0.11261 -0.98607
O_ O_ 0.94433 0.781863 0.113278 -0.98607
O_ O_ 0.729784 0.575311 0.188911 -0.61362
O_ O_ 0.729117 0.825303 0.19122 -0.61362
O_ O_ 0.978768 0.572989 0.18956 -0.61362
O_ O_ 0.9828 0.824953 0.187436 -0.61362
O_ O_ 0.56361 0.661681 0.445105 -0.55956
O_ O_ 0.568047 0.919855 0.441705 -0.55956
O_ O_ 0.818359 0.675005 0.434435 -0.55956
O_ O_ 0.83053 0.928173 0.437748 -0.55956
O_ O_ 0.700293 0.726026 0.0742066 -0.61362
O_ O_ 0.70407 0.976788 0.0783231 -0.61362
O_ O_ 0.961551 0.724232 0.0790574 -0.61362
O_ O_ 0.961177 0.976712 0.0808102 -0.61362
O_ O_ 0.654724 0.71469 0.124006 -0.98607
O_ O_ 0.653086 0.964514 0.131976 -0.98607
O_ O_ 0.908519 0.713248 0.131615 -0.98607
O_ O_ 0.904598 0.966128 0.127283 -0.98607
O_ O_ 0.657556 0.670604 0.0662305 -0.61362
O_ O_ 0.653586 0.924178 0.0670209 -0.61362
O_ O_ 0.902933 0.675076 0.0599463 -0.61362
O_ O_ 0.912132 0.924711 0.0651004 -0.61362
O_ O_ 0.640721 0.626409 0.318564 -0.55956
O_ O_ 0.647248 0.866911 0.31 -0.55956
O_ O_ 0.894507 0.622486 0.312047 -0.55956
O_ O_ 0.895787 0.865065 0.312228 -0.55956
Zn Zn 0.521923 0.670594 0.860655 0.91541
Zn Zn 0.520812 0.925063 0.865999 0.91541
Zn Zn 0.770731 0.673874 0.865941 0.91541
Zn Zn 0.77159 0.923679 0.866017 0.91541
Zn Zn 0.59951 0.578013 0.88753 0.91541
Zn Zn 0.602348 0.832259 0.884386 0.91541
Zn Zn 0.851131 0.580082 0.887594 0.91541
Zn Zn 0.853833 0.833683 0.890417 0.91541
Zn Zn 0.727903 0.578145 0.635163 0.91541
Zn Zn 0.726845 0.827347 0.637801 0.91541
Zn Zn 0.981169 0.576687 0.638086 0.91541
Zn Zn 0.975502 0.827004 0.635556 0.91541
Zn Zn 0.648836 0.669613 0.618824 0.91541
Zn Zn 0.645574 0.918402 0.611922 0.91541
Zn Zn 0.898093 0.671247 0.614027 0.91541
Zn Zn 0.89369 0.920643 0.612939 0.91541
Zn Zn 0.553094 0.500248 0.879302 1.11764
Zn Zn 0.550685 0.749693 0.87405 1.11764
Zn Zn 0.804518 0.50212 0.876142 1.11764
Zn Zn 0.801357 0.755577 0.880443 1.11764
Zn Zn 0.699889 -0.0006549999999999612 0.625342 1.11764
Zn Zn 0.699649 0.747362 0.627269 1.11764
Zn Zn 0.941857 0.996241 0.622073 1.11764
Zn Zn 0.950086 0.748708 0.625744 1.11764
H_ H_ 0.760499 0.644966 0.725659 0.1146
H_ H_ 0.74415 0.88816 0.732599 0.1146
H_ H_ 0.000564106 0.634976 0.724676 0.1146
H_ H_ 0.00533882 0.890449 0.72302 0.1146
H_ H_ 0.684964 0.707923 0.699737 0.1146
H_ H_ 0.704086 0.966591 0.690879 0.1146
H_ H_ 0.941008 0.704686 0.695639 0.1146
H_ H_ 0.932688 0.955234 0.700362 0.1146
H_ H_ 0.719924 0.725292 0.771178 0.1146
H_ H_ 0.737829 0.985647 0.760492 0.1146
H_ H_ 0.979491 0.725796 0.764656 0.1146
H_ H_ 0.97278 0.975368 0.768799 0.1146
H_ H_ 0.679631 0.561702 0.541386 0.42917
H_ H_ 0.702833 0.826486 0.5401 0.42917
H_ H_ 0.962967 0.591929 0.540687 0.42917
H_ H_ 0.948892 0.827686 0.549259 0.42917
H_ H_ 0.650391 0.60375 0.563114 0.1146
H_ H_ 0.666302 0.861275 0.550698 0.1146
H_ H_ 0.906467 0.606033 0.556268 0.1146
H_ H_ 0.899648 0.85536 0.559366 0.1146
H_ H_ 0.601324 0.573128 0.606818 0.1146
H_ H_ 0.609225 0.806088 0.541944 0.1146
H_ H_ 0.887228 0.552247 0.597003 0.1146
H_ H_ 0.84681 0.821537 0.599192 0.1146
H_ H_ 0.605608 0.542267 0.559161 0.1146
H_ H_ 0.630465 0.801315 0.589881 0.1146
H_ H_ 0.857239 0.570491 0.581818 0.1146
H_ H_ 0.85839 0.790315 0.55668 0.1146
H_ H_ 0.629966 0.549589 0.615489 0.1146
H_ H_ 0.607653 0.828346 0.598946 0.1146
H_ H_ 0.866704 0.541452 0.543903 0.1146
H_ H_ 0.877338 0.802133 0.610931 0.1146
H_ H_ 0.57024 0.723092 0.904106 0.42917
H_ H_ 0.581484 0.972838 0.891853 0.42917
H_ H_ 0.819521 0.723167 0.904456 0.42917
H_ H_ 0.82037 0.97298 0.90747 0.42917
H_ H_ 0.610243 0.612431 0.526193 0.1146
H_ H_ 0.603447 0.861681 0.514146 0.1146
H_ H_ 0.864539 0.613279 0.518998 0.1146
H_ H_ 0.850349 0.867781 0.512957 0.1146
H_ H_ 0.731776 0.540639 0.548944 0.1146
H_ H_ 0.734834 0.787913 0.553051 0.1146
H_ H_ 0.979888 0.53391 0.552015 0.1146
H_ H_ 0.981474 0.786155 0.552699 0.1146
H_ H_ 0.747072 0.517365 0.980308 0.1146
H_ H_ 0.746993 0.777988 0.98223 0.1146
H_ H_ -0.00518799999999997 0.523471 0.978512 0.1146
H_ H_ 0.992639 0.771618 0.97603 0.1146
H_ H_ 0.615452 0.614405 0.678778 0.42917
H_ H_ 0.611284 0.861525 0.679846 0.42917
H_ H_ 0.872457 0.631601 0.70546 0.42917
H_ H_ 0.866881 0.90938 0.718277 0.42917
H_ H_ 0.551793 0.62514 0.699201 0.1146
H_ H_ 0.550602 0.872801 0.691484 0.1146
H_ H_ 0.804811 0.629196 0.695151 0.1146
H_ H_ 0.795736 0.883347 0.693951 0.1146
H_ H_ 0.618527 0.690989 0.693492 0.1146
H_ H_ 0.570736 0.937144 0.698055 0.1146
H_ H_ 0.825283 0.689592 0.669855 0.1146
H_ H_ 0.84806 0.951752 0.678869 0.1146
H_ H_ 0.570143 0.685188 0.698055 0.1146
H_ H_ 0.60362 0.931967 0.734654 0.1146
H_ H_ 0.830591 0.691436 0.723204 0.1146
H_ H_ 0.792086 0.930031 0.664641 0.1146
H_ H_ 0.598244 0.680946 0.738849 0.1146
H_ H_ 0.620173 0.939052 0.688847 0.1146
H_ H_ 0.872352 0.69362 0.700603 0.1146
H_ H_ 0.818976 0.943017 0.722179 0.1146
H_ H_ 0.61225 0.533139 0.882989 0.42917
H_ H_ 0.610265 0.781818 0.864044 0.42917
H_ H_ 0.858871 0.532223 0.854814 0.42917
H_ H_ 0.860103 0.784044 0.861344 0.42917
H_ H_ 0.493989 0.607151 0.77137 0.1146
H_ H_ 0.497184 0.859798 0.768219 0.1146
H_ H_ 0.747316 0.611787 0.76766 0.1146
H_ H_ 0.769998 0.868524 0.767528 0.1146
H_ H_ 0.554914 0.537325 0.813214 0.1146
H_ H_ 0.560106 0.794139 0.806484 0.1146
H_ H_ 0.795815 0.536502 0.809168 0.1146
H_ H_ 0.805506 0.789536 0.811768 0.1146
H_ H_ 0.524374 0.518895 0.739705 0.1146
H_ H_ 0.524458 0.772483 0.738321 0.1146
H_ H_ 0.773593 0.524622 0.73688 0.1146
H_ H_ 0.775903 0.773042 0.737099 0.1146
H_ H_ 0.566201 0.683334 0.967409 0.42917
H_ H_ 0.557392 0.936939 0.954836 0.42917
H_ H_ 0.789488 0.659845 0.956355 0.42917
H_ H_ 0.811031 0.933072 0.967089 0.42917
H_ H_ 0.603228 0.649145 0.937722 0.1146
H_ H_ 0.596963 0.902475 0.938295 0.1146
H_ H_ 0.840182 0.641206 0.945549 0.1146
H_ H_ 0.84361 0.897014 0.947041 0.1146
H_ H_ 0.645351 0.70611 0.939344 0.1146
H_ H_ 0.645187 0.957544 0.928674 0.1146
H_ H_ 0.865094 0.706064 0.921985 0.1146
H_ H_ 0.887843 0.956628 0.946311 0.1146
H_ H_ 0.616976 0.698667 0.888668 0.1146
H_ H_ 0.622602 0.944518 0.875624 0.1146
H_ H_ 0.885754 0.681445 0.896457 0.1146
H_ H_ 0.866614 0.946641 0.892932 0.1146
H_ H_ 0.648363 0.677973 0.893616 0.1146
H_ H_ 0.641896 0.919297 0.886921 0.1146
H_ H_ 0.889066 0.694687 0.955998 0.1146
H_ H_ 0.895477 0.92735 0.903356 0.1146
H_ H_ 0.677024 0.526749 0.595742 0.42917
H_ H_ 0.67932 0.777208 0.598115 0.42917
H_ H_ 0.930869 0.52738 0.600475 0.42917
H_ H_ 0.921141 0.777626 0.606453 0.42917
H_ H_ 0.642293 0.630125 0.980455 0.1146
H_ H_ 0.63193 0.890562 0.976413 0.1146
H_ H_ 0.900304 0.632225 0.987013 0.1146
H_ H_ 0.895744 0.891741 0.983185 0.1146
H_ H_ 0.517473 0.710885 0.946809 0.1146
H_ H_ 0.510383 0.964643 0.945479 0.1146
H_ H_ 0.756456 0.71265 0.939946 0.1146
H_ H_ 0.75712 0.969504 0.947384 0.1146
H_ H_ 0.503431 0.725556 0.520126 0.1146
H_ H_ 0.507952 0.979065 0.525432 0.1146
H_ H_ 0.757832 0.726834 0.517394 0.1146
H_ H_ 0.753365 0.977167 0.519951 0.1146
H_ H_ 0.621479 0.612932 0.794473 0.42917
H_ H_ 0.635305 0.876321 0.797829 0.42917
H_ H_ 0.880257 0.629039 0.81552 0.42917
H_ H_ 0.877525 0.869311 0.816273 0.42917
H_ H_ 0.694214 0.621772 0.806112 0.1146
H_ H_ 0.698579 0.872023 0.806829 0.1146
H_ H_ 0.946001 0.624812 0.807962 0.1146
H_ H_ 0.948698 0.870809 0.806673 0.1146
H_ H_ 0.682791 0.567619 0.8025 0.1146
H_ H_ 0.637679 0.805664 0.820144 0.1146
H_ H_ 0.930571 0.565792 0.820218 0.1146
H_ H_ 0.925605 0.815391 0.842401 0.1146
H_ H_ 0.645835 0.563166 0.762881 0.1146
H_ H_ 0.685958 0.814479 0.811365 0.1146
H_ H_ 0.915885 0.565878 0.768814 0.1146
H_ H_ 0.93115 0.807462 0.78494 0.1146
H_ H_ 0.63236 0.554849 0.812855 0.1146
H_ H_ 0.657241 0.81094 0.770851 0.1146
H_ H_ 0.877144 0.555621 0.79869 0.1146
H_ H_ 0.886332 0.803151 0.804753 0.1146
H_ H_ 0.637387 0.720862 0.632619 0.42917
H_ H_ 0.644183 0.97122 0.644028 0.42917
H_ H_ 0.890726 0.720823 0.636441 0.42917
H_ H_ 0.876918 0.965506 0.620062 0.42917
C_ C_ 0.738816 0.655585 0.724015 -0.12085
C_ C_ 0.734699 0.904315 0.725018 -0.12085
C_ C_ 0.9877 0.649627 0.721332 -0.12085
C_ C_ 0.99062 0.905204 0.719898 -0.12085
C_ C_ 0.509454 0.694126 0.799229 0.6956
C_ C_ 0.512038 0.950493 0.800532 0.6956
C_ C_ 0.761943 0.697862 0.802696 0.6956
C_ C_ 0.758776 0.948185 0.7993 0.6956
C_ C_ 0.741191 0.686161 0.757009 -0.16651
C_ C_ 0.741735 0.937111 0.754144 -0.16651
C_ C_ 0.989892 0.679859 0.75497 -0.16651
C_ C_ 0.991875 0.933667 0.752327 -0.16651
C_ C_ 0.702892 0.695132 0.704788 -0.12085
C_ C_ 0.709375 0.948566 0.699957 -0.12085
C_ C_ 0.952978 0.689657 0.703257 -0.12085
C_ C_ 0.950919 0.944138 0.70364 -0.12085
C_ C_ 0.720132 0.646304 0.681484 0.16698
C_ C_ 0.715574 0.894531 0.683545 0.16698
C_ C_ 0.962979 0.638975 0.680915 0.16698
C_ C_ 0.965908 0.89477 0.681418 0.16698
C_ C_ 0.68346 0.61946 0.624843 0.36401
C_ C_ 0.686695 0.871811 0.617048 0.36401
C_ C_ 0.933379 0.617651 0.619221 0.36401
C_ C_ 0.930853 0.869017 0.620673 0.36401
C_ C_ 0.704084 0.666844 0.673357 0.16698
C_ C_ 0.702001 0.916194 0.672085 0.16698
C_ C_ 0.944334 0.658165 0.674521 0.16698
C_ C_ 0.948792 0.915306 0.672959 0.16698
C_ C_ 0.721063 0.704238 0.74604 -0.12085
C_ C_ 0.731723 0.959953 0.739818 -0.12085
C_ C_ 0.973107 0.700549 0.744061 -0.12085
C_ C_ 0.973195 0.953885 0.743374 -0.12085
C_ C_ 0.65818 0.590643 0.584405 0.15351
C_ C_ 0.666632 0.847039 0.57393 0.15351
C_ C_ 0.917163 0.592875 0.574032 0.15351
C_ C_ 0.907148 0.840455 0.57949 0.15351
C_ C_ 0.62145 0.561199 0.591334 -0.35079
C_ C_ 0.625577 0.81882 0.575596 -0.35079
C_ C_ 0.880887 0.562616 0.573596 -0.35079
C_ C_ 0.869059 0.81235 0.586818 -0.35079
C_ C_ 0.580645 0.597018 0.529213 -0.12085
C_ C_ 0.575633 0.846003 0.523224 -0.12085
C_ C_ 0.834984 0.598883 0.524426 -0.12085
C_ C_ 0.83091 0.84941 0.525028 -0.12085
C_ C_ 0.558908 0.553911 0.952471 0.6956
C_ C_ 0.567773 0.808589 0.949259 0.6956
C_ C_ 0.810773 0.55578 0.948238 0.6956
C_ C_ 0.810515 0.812063 0.949743 0.6956
C_ C_ 0.548082 0.567639 0.996042 -0.16651
C_ C_ 0.558799 0.818502 0.993295 -0.16651
C_ C_ 0.799423 0.56602 0.992468 -0.16651
C_ C_ 0.801516 0.824454 0.994221 -0.16651
C_ C_ 0.760232 0.557954 0.542592 -0.12085
C_ C_ 0.75932 0.8057 0.544215 -0.12085
C_ C_ 1.0073163 0.551006 0.543248 -0.12085
C_ C_ 0.00282747 0.805789 0.541733 -0.12085
C_ C_ 0.567589 0.607712 0.56841 0.16698
C_ C_ 0.562442 0.858021 0.563277 0.16698
C_ C_ 0.820141 0.609227 0.56484 0.16698
C_ C_ 0.818988 0.857422 0.565811 0.16698
C_ C_ 0.565109 0.624661 0.635792 0.36401
C_ C_ 0.561102 0.876451 0.629433 0.36401
C_ C_ 0.815814 0.627248 0.632122 0.36401
C_ C_ 0.812617 0.876464 0.631577 0.36401
C_ C_ 0.530841 0.586875 0.575696 0.16698
C_ C_ 0.5262 0.838687 0.570926 0.16698
C_ C_ 0.783532 0.589272 0.57253 0.16698
C_ C_ 0.783138 0.836009 0.57351 0.16698
C_ C_ 0.513861 0.543556 0.0086755 -0.12085
C_ C_ 0.521312 0.796948 1.00183447 -0.12085
C_ C_ 0.762883 0.543811 0.00261702 -0.12085
C_ C_ 0.764651 0.803371 0.00505641 -0.12085
C_ C_ 0.577791 0.636609 0.68235 0.15351
C_ C_ 0.576217 0.886991 0.677289 0.15351
C_ C_ 0.829589 0.642955 0.679594 0.15351
C_ C_ 0.819191 0.898016 0.677768 0.15351
C_ C_ 0.590478 0.674466 0.70456 -0.35079
C_ C_ 0.592229 0.925987 0.700554 -0.35079
C_ C_ 0.840499 0.681623 0.693871 -0.35079
C_ C_ 0.820295 0.933642 0.6862 -0.35079
C_ C_ 0.505559 0.591207 0.780865 -0.12085
C_ C_ 0.507909 0.844192 0.775865 -0.12085
C_ C_ 0.760746 0.597374 0.778146 -0.12085
C_ C_ 0.770553 0.849223 0.77676 -0.12085
C_ C_ 0.74105 0.557029 0.701723 0.6956
C_ C_ 0.745109 0.804617 0.700907 0.6956
C_ C_ 0.989578 0.553445 0.70156 0.6956
C_ C_ 0.990646 0.804482 0.701813 0.6956
C_ C_ 0.504589 0.560911 0.749053 -0.16651
C_ C_ 0.506721 0.814038 0.743667 -0.16651
C_ C_ 0.756687 0.565734 0.746459 -0.16651
C_ C_ 0.764079 0.817167 0.746384 -0.16651
C_ C_ 0.542097 0.553514 0.803517 -0.12085
C_ C_ 0.547536 0.808695 0.798563 -0.12085
C_ C_ 0.792832 0.556216 0.799812 -0.12085
C_ C_ 0.797083 0.806869 0.801364 -0.12085
C_ C_ 0.527115 0.603016 0.821431 0.16698
C_ C_ 0.525363 0.853623 0.818712 0.16698
C_ C_ 0.778308 0.606075 0.820482 0.16698
C_ C_ 0.781389 0.854717 0.819778 0.16698
C_ C_ 0.563681 0.629871 0.881145 0.36401
C_ C_ 0.561725 0.880746 0.877873 0.36401
C_ C_ 0.815016 0.631818 0.880747 0.36401
C_ C_ 0.814815 0.88077 0.882058 0.36401
C_ C_ 0.540027 0.581268 0.833016 0.16698
C_ C_ 0.543932 0.835055 0.829238 0.16698
C_ C_ 0.791854 0.583721 0.829886 0.16698
C_ C_ 0.792963 0.833246 0.832821 0.16698
C_ C_ 0.523804 0.541564 0.761204 -0.12085
C_ C_ 0.525737 0.795921 0.756672 -0.12085
C_ C_ 0.771645 0.545535 0.758847 -0.12085
C_ C_ 0.776331 0.795659 0.760361 -0.12085
C_ C_ 0.590903 0.660166 0.919786 0.15351
C_ C_ 0.588374 0.912419 0.913601 0.15351
C_ C_ 0.832103 0.655686 0.925029 0.15351
C_ C_ 0.837939 0.909026 0.923804 0.15351
C_ C_ 0.627543 0.687762 0.909517 -0.35079
C_ C_ 0.626581 0.935388 0.901664 -0.35079
C_ C_ 0.86873 0.684659 0.925388 -0.35079
C_ C_ 0.875373 0.936933 0.916676 -0.35079
C_ C_ 0.669939 0.647854 0.975647 -0.12085
C_ C_ 0.663455 0.905539 0.97252 -0.12085
C_ C_ 0.923611 0.651981 0.976897 -0.12085
C_ C_ 0.923761 0.90706 0.976414 -0.12085
C_ C_ 0.692097 0.692848 0.554187 0.6956
C_ C_ 0.686747 0.944564 0.551007 0.6956
C_ C_ 0.933373 0.692263 0.546918 0.6956
C_ C_ 0.935384 0.945043 0.549559 0.6956
C_ C_ 0.700929 0.681145 0.509307 -0.16651
C_ C_ 0.698561 0.932502 0.50803 -0.16651
C_ C_ 0.94678 0.682163 0.505658 -0.16651
C_ C_ 0.94883 0.934659 0.507559 -0.16651
C_ C_ 0.491001 0.693968 0.956828 -0.12085
C_ C_ 0.491779 0.943076 0.956501 -0.12085
C_ C_ 0.73459 0.695526 0.952961 -0.12085
C_ C_ 0.73581 0.949565 0.956171 -0.12085
C_ C_ 0.681306 0.63866 0.935864 0.16698
C_ C_ 0.679072 0.893986 0.935865 0.16698
C_ C_ 0.93261 0.643344 0.935014 0.16698
C_ C_ 0.934477 0.896565 0.935618 0.16698
C_ C_ 0.683495 0.622017 0.868703 0.36401
C_ C_ 0.68359 0.877315 0.869227 0.36401
C_ C_ 0.93546 0.626129 0.867732 0.36401
C_ C_ 0.936944 0.876759 0.869725 0.36401
C_ C_ 0.715673 0.662797 0.927824 0.16698
C_ C_ 0.715296 0.916003 0.92913 0.16698
C_ C_ 0.96727 0.667155 0.924759 0.16698
C_ C_ 0.970561 0.916253 0.9271 0.16698
C_ C_ 0.736069 0.701369 0.497067 -0.12085
C_ C_ 0.735625 0.952558 0.497104 -0.12085
C_ C_ 0.986631 0.70114 0.498974 -0.12085
C_ C_ 0.981365 0.956644 0.49403 -0.12085
C_ C_ 0.668906 0.607929 0.821305 0.15351
C_ C_ 0.671963 0.859732 0.821365 0.15351
C_ C_ 0.920812 0.610382 0.820547 0.15351
C_ C_ 0.923482 0.857603 0.822505 0.15351
C_ C_ 0.656738 0.571664 0.79835 -0.35079
C_ C_ 0.662649 0.820901 0.805896 -0.35079
C_ C_ 0.911019 0.571491 0.800646 -0.35079
C_ C_ 0.919146 0.819932 0.813058 -0.35079
N_ N_ 0.707444 0.615382 0.651094 -0.51457
N_ N_ 0.70804 0.866366 0.647161 -0.51457
N_ N_ 0.957517 0.613208 0.64574 -0.51457
N_ N_ 0.955211 0.864595 0.648054 -0.51457
N_ N_ 0.67869 0.649429 0.637972 -0.51457
N_ N_ 0.682563 0.901618 0.631427 -0.51457
N_ N_ 0.929377 0.648232 0.633072 -0.51457
N_ N_ 0.925877 0.899134 0.635493 -0.51457
N_ N_ 0.590898 0.631841 0.606323 -0.51457
N_ N_ 0.586381 0.883076 0.599564 -0.51457
N_ N_ 0.841108 0.634361 0.602503 -0.51457
N_ N_ 0.83734 0.884649 0.600579 -0.51457
N_ N_ 0.528258 0.597908 0.618259 -0.51457
N_ N_ 0.523566 0.848844 0.612155 -0.51457
N_ N_ 0.779084 0.600483 0.614271 -0.51457
N_ N_ 0.779205 0.846883 0.61545 -0.51457
N_ N_ 0.542585 0.634704 0.850876 -0.51457
N_ N_ 0.537652 0.884331 0.85019 -0.51457
N_ N_ 0.792228 0.636634 0.851644 -0.51457
N_ N_ 0.792191 0.885166 0.851256 -0.51457
N_ N_ 0.563385 0.597503 0.871654 -0.51457
N_ N_ 0.566868 0.851266 0.867164 -0.51457
N_ N_ 0.81723 0.600121 0.866633 -0.51457
N_ N_ 0.816116 0.849271 0.870022 -0.51457
N_ N_ 0.658309 0.614171 0.89971 -0.51457
N_ N_ 0.65845 0.869231 0.898399 -0.51457
N_ N_ 0.90957 0.617597 0.898313 -0.51457
N_ N_ 0.911115 0.871429 0.898709 -0.51457
N_ N_ 0.720728 0.65171 0.88646 -0.51457
N_ N_ 0.720253 0.905819 0.887998 -0.51457
N_ N_ 0.971176 0.655746 0.883753 -0.51457
N_ N_ 0.973563 0.904858 0.884435 -0.51457
O_ O_ 0.512254 0.722663 0.82673 -0.61362
O_ O_ 0.520396 0.980217 0.827373 -0.61362
O_ O_ 0.774276 0.73054 0.826665 -0.61362
O_ O_ 0.771094 0.979963 0.822394 -0.61362
O_ O_ 0.552021 0.715629 0.882058 -0.98607
O_ O_ 0.558069 0.968547 0.88145 -0.98607
O_ O_ 0.800293 0.718736 0.886801 -0.98607
O_ O_ 0.802687 0.967214 0.886853 -0.98607
O_ O_ 0.522078 0.674452 0.810236 -0.61362
O_ O_ 0.510645 0.926478 0.816178 -0.61362
O_ O_ 0.76784 0.675998 0.816207 -0.61362
O_ O_ 0.7689 0.928027 0.812484 -0.61362
O_ O_ 0.677474 0.576983 0.562851 -0.55956
O_ O_ 0.686373 0.829767 0.557822 -0.55956
O_ O_ 0.943487 0.583679 0.553718 -0.55956
O_ O_ 0.9269 0.826169 0.557719 -0.55956
O_ O_ 0.539536 0.522601 0.928376 -0.61362
O_ O_ 0.546366 0.777454 0.922056 -0.61362
O_ O_ 0.794534 0.523422 0.924443 -0.61362
O_ O_ 0.787196 0.780199 0.923028 -0.61362
O_ O_ 0.590916 0.535111 0.877421 -0.98607
O_ O_ 0.590186 0.786338 0.870259 -0.98607
O_ O_ 0.842352 0.537016 0.869583 -0.98607
O_ O_ 0.842254 0.788802 0.873985 -0.98607
O_ O_ 0.588875 0.57553 0.93945 -0.61362
O_ O_ 0.599098 0.830771 0.938474 -0.61362
O_ O_ 0.841179 0.577573 0.936911 -0.61362
O_ O_ 0.844281 0.831026 0.941205 -0.61362
O_ O_ 0.604619 0.627789 0.688691 -0.55956
O_ O_ 0.60395 0.877328 0.682769 -0.55956
O_ O_ 0.860556 0.638727 0.68989 -0.55956
O_ O_ 0.852347 0.902906 0.694458 -0.55956
O_ O_ 0.727527 0.524617 0.675973 -0.61362
O_ O_ 0.729655 0.772076 0.67773 -0.61362
O_ O_ 0.98547 0.523963 0.674467 -0.61362
O_ O_ 0.981887 0.773112 0.675239 -0.61362
O_ O_ 0.697392 0.532562 0.612338 -0.98607
O_ O_ 0.695671 0.782184 0.619025 -0.98607
O_ O_ 0.950936 0.532176 0.617559 -0.98607
O_ O_ 0.942864 0.782963 0.618781 -0.98607
O_ O_ 0.742054 0.580837 0.686724 -0.61362
O_ O_ 0.734631 0.826309 0.688982 -0.61362
O_ O_ 0.978339 0.572864 0.69031 -0.61362
O_ O_ 0.981439 0.825625 0.688687 -0.61362
O_ O_ 0.570294 0.673611 0.942219 -0.55956
O_ O_ 0.568846 0.929051 0.931967 -0.55956
O_ O_ 0.808618 0.666441 0.943373 -0.55956
O_ O_ 0.814657 0.922749 0.941094 -0.55956
O_ O_ 0.712708 0.724937 0.579497 -0.61362
O_ O_ 0.709327 0.976556 0.577177 -0.61362
O_ O_ 0.952295 0.724088 0.571967 -0.61362
O_ O_ 0.953811 0.976772 0.574838 -0.61362
O_ O_ 0.656461 0.71427 0.629704 -0.98607
O_ O_ 0.659365 0.963135 0.628465 -0.98607
O_ O_ 0.909819 0.715313 0.628606 -0.98607
O_ O_ 0.899186 0.962923 0.621907 -0.98607
O_ O_ 0.662923 0.670818 0.565539 -0.61362
O_ O_ 0.653844 0.924194 0.561731 -0.61362
O_ O_ 0.911258 0.66896 0.563811 -0.61362
O_ O_ 0.908203 0.922919 0.562321 -0.61362
O_ O_ 0.640375 0.615287 0.813239 -0.55956
O_ O_ 0.643771 0.86281 0.803166 -0.55956
O_ O_ 0.892611 0.616285 0.809674 -0.55956
O_ O_ 0.892242 0.858547 0.809666 -0.55956
_cell_length_a 37.194
_cell_length_b 45.259999627434034
_cell_length_c 33.09000048594031
_cell_angle_alpha 107.03300062247644
_cell_angle_beta 90.06299939653213
_cell_angle_gamma 114.03899985713122
_symmetry_space_group_name_H-M         'P 1'
_symmetry_Int_Tables_number            1
loop_
_symmetry_equiv_pos_as_xyz
   'x, y, z'
                         
loop_
_atom_site_label
_atom_site_type_symbol
_atom_site_fract_x 
_atom_site_fract_y
_atom_site_fract_z
_atom_site_charge
Zn Zn 0.0275653 0.177953 0.36396 0.91541
Zn Zn 0.0268461 0.425076 0.363483 0.91541
Zn Zn 0.274011 0.172528 0.366514 0.91541
Zn Zn 0.27732 0.42382 0.363231 0.91541
Zn Zn 0.103469 0.0822937 0.386976 0.91541
Zn Zn 0.111349 0.333309 0.384428 0.91541
Zn Zn 0.352556 0.0787071 0.388602 0.91541
Zn Zn 0.351969 0.328196 0.384573 0.91541
Zn Zn 0.224181 0.0762212 0.135739 0.91541
Zn Zn 0.2271 0.325114 0.131864 0.91541
Zn Zn 0.474814 0.0738378 0.135533 0.91541
Zn Zn 0.478216 0.329559 0.138034 0.91541
Zn Zn 0.149407 0.170983 0.113417 0.91541
Zn Zn 0.144181 0.416474 0.112839 0.91541
Zn Zn 0.396276 0.169163 0.119751 0.91541
Zn Zn 0.39537 0.419997 0.112285 0.91541
Zn Zn 0.0540477 0.00447089 0.377089 1.11764
Zn Zn 0.052818 0.25498 0.372823 1.11764
Zn Zn 0.303208 0.00198559 0.376913 1.11764
Zn Zn 0.301808 0.25275 0.376576 1.11764
Zn Zn 0.191509 0.494826 0.128614 1.11764
Zn Zn 0.198332 0.248215 0.124393 1.11764
Zn Zn 0.445343 0.497758 0.124578 1.11764
Zn Zn 0.450025 0.24835 0.12868 1.11764
H_ H_ 0.251302 0.140121 0.229833 0.1146
H_ H_ 0.253344 0.386573 0.224504 0.1146
H_ H_ 0.505697 0.137465 0.227005 0.1146
H_ H_ 0.509396 0.39582 0.231866 0.1146
H_ H_ 0.191454 0.212977 0.196419 0.1146
H_ H_ 0.185402 0.452355 0.192729 0.1146
H_ H_ 0.442553 0.206837 0.196019 0.1146
H_ H_ 0.432459 0.459724 0.203648 0.1146
H_ H_ 0.232949 0.23212 0.265016 0.1146
H_ H_ 0.221484 0.472316 0.26699 0.1146
H_ H_ 0.476587 0.226652 0.270241 0.1146
H_ H_ 0.468924 0.476656 0.270923 0.1146
H_ H_ 0.225963 0.105225 0.0489729 0.42917
H_ H_ 0.176898 0.31192 0.0319089 0.42917
H_ H_ 0.445371 0.0736205 0.0489422 0.42917
H_ H_ 0.44624 0.323436 0.0397776 0.42917
H_ H_ 0.164694 0.116283 0.0554002 0.1146
H_ H_ 0.146423 0.350066 0.0599485 0.1146
H_ H_ 0.403733 0.102405 0.060841 0.1146
H_ H_ 0.415364 0.359911 0.06052 0.1146
H_ H_ 0.128457 0.0541211 0.0272786 0.1146
H_ H_ 0.0977153 0.288659 0.0634194 0.1146
H_ H_ 0.371482 0.0537154 0.114392 0.1146
H_ H_ 0.376705 0.306642 0.109082 0.1146
H_ H_ 0.143681 0.0492029 0.0721782 0.1146
H_ H_ 0.121715 0.297933 0.114917 0.1146
H_ H_ 0.34602 0.0726416 0.0912533 0.1146
H_ H_ 0.353088 0.32877 0.09392 0.1146
H_ H_ 0.114091 0.0669456 0.0837179 0.1146
H_ H_ 0.0974278 0.324688 0.106592 0.1146
H_ H_ 0.359156 0.0423752 0.0602442 0.1146
H_ H_ 0.362313 0.298751 0.0529013 0.1146
H_ H_ 0.0832321 0.230104 0.396891 0.42917
H_ H_ 0.0733286 0.473032 0.405427 0.42917
H_ H_ 0.330497 0.222221 0.393182 0.42917
H_ H_ 0.331841 0.475009 0.394701 0.42917
H_ H_ 0.11222 0.110108 0.0218991 0.1146
H_ H_ 0.107041 0.360292 0.019758 0.1146
H_ H_ 0.356704 0.114167 0.0174574 0.1146
H_ H_ 0.361881 0.357102 0.0213607 0.1146
H_ H_ 0.224029 0.0443473 0.0494147 0.1146
H_ H_ 0.227299 0.292982 0.0463792 0.1146
H_ H_ 0.484968 0.0325917 0.0537464 0.1146
H_ H_ 0.490576 0.290786 0.0568918 0.1146
H_ H_ 0.252274 0.0187631 0.490685 0.1146
H_ H_ 0.25009 0.268068 0.483406 0.1146
H_ H_ 0.500385 0.0263135 0.47873 0.1146
H_ H_ 0.502445 0.270789 0.485553 0.1146
H_ H_ 0.132763 0.157069 0.214514 0.42917
H_ H_ 0.112679 0.368052 0.20038 0.42917
H_ H_ 0.375624 0.145577 0.207058 0.42917
H_ H_ 0.361637 0.372858 0.198649 0.42917
H_ H_ 0.056616 0.12957 0.197432 0.1146
H_ H_ 0.051739 0.373531 0.193159 0.1146
H_ H_ 0.30301 0.125276 0.1926 0.1146
H_ H_ 0.301008 0.37438 0.188419 0.1146
H_ H_ 0.0589922 0.186184 0.176636 0.1146
H_ H_ 0.0645869 0.429967 0.185734 0.1146
H_ H_ 0.308093 0.182079 0.175549 0.1146
H_ H_ 0.31126 0.433664 0.185252 0.1146
H_ H_ 0.0774183 0.188378 0.227357 0.1146
H_ H_ 0.0954784 0.433382 0.230279 0.1146
H_ H_ 0.326861 0.188468 0.229453 0.1146
H_ H_ 0.338847 0.435498 0.232253 0.1146
H_ H_ 0.109553 0.196249 0.186743 0.1146
H_ H_ 0.117247 0.437162 0.184844 0.1146
H_ H_ 0.359034 0.196725 0.192616 0.1146
H_ H_ 0.364269 0.443398 0.187806 0.1146
H_ H_ 0.11649 0.0350659 0.372005 0.42917
H_ H_ 0.116443 0.282425 0.368836 0.42917
H_ H_ 0.361621 0.029652 0.363434 0.42917
H_ H_ 0.355322 0.277345 0.349826 0.42917
H_ H_ 1.00289859 0.115398 0.269477 0.1146
H_ H_ 0.999344 0.362272 0.271277 0.1146
H_ H_ 0.238675 0.10642 0.277097 0.1146
H_ H_ 0.246984 0.359575 0.269774 0.1146
H_ H_ 0.0586579 0.0411368 0.306564 0.1146
H_ H_ 0.0505309 0.286219 0.304084 0.1146
H_ H_ 0.30967 0.0403388 0.306459 0.1146
H_ H_ 0.304604 0.289061 0.306062 0.1146
H_ H_ 0.0285796 0.027497 0.232666 0.1146
H_ H_ 0.0160763 0.271599 0.234265 0.1146
H_ H_ 0.280143 0.0253383 0.233567 0.1146
H_ H_ 0.276645 0.274333 0.230487 0.1146
H_ H_ 0.0634828 0.1737 0.47159 0.42917
H_ H_ 0.0777825 0.434833 0.469094 0.42917
H_ H_ 0.313209 0.180241 0.465727 0.42917
H_ H_ 0.324117 0.439596 0.456684 0.42917
H_ H_ 0.103973 0.146454 0.432284 0.1146
H_ H_ 0.113746 0.4013 0.432646 0.1146
H_ H_ 0.356058 0.153234 0.445435 0.1146
H_ H_ 0.349481 0.397028 0.43999 0.1146
H_ H_ 0.113684 0.195692 0.383667 0.1146
H_ H_ 0.117356 0.449383 0.385225 0.1146
H_ H_ 0.397073 0.207375 0.442986 0.1146
H_ H_ 0.405173 0.448787 0.433832 0.1146
H_ H_ 0.144873 0.17695 0.392891 0.1146
H_ H_ 0.142796 0.427733 0.382209 0.1146
H_ H_ 0.374622 0.199152 0.389022 0.1146
H_ H_ 0.381934 0.450296 0.390189 0.1146
H_ H_ 0.147294 0.212801 0.430859 0.1146
H_ H_ 0.151183 0.455713 0.435555 0.1146
H_ H_ 0.396478 0.174448 0.397287 0.1146
H_ H_ 0.397055 0.415059 0.386963 0.1146
H_ H_ 0.164277 0.0245039 0.112307 0.42917
H_ H_ 0.169576 0.272841 0.099851 0.42917
H_ H_ 0.417005 0.0239859 0.103476 0.42917
H_ H_ 0.422485 0.278759 0.108195 0.42917
H_ H_ 0.139079 0.138928 0.483223 0.1146
H_ H_ 0.150809 0.384671 0.484132 0.1146
H_ H_ 0.389287 0.137266 0.4796 0.1146
H_ H_ 0.388835 0.384342 0.477821 0.1146
H_ H_ 0.0316416 0.216391 0.452952 0.1146
H_ H_ 0.0219876 0.459104 0.448212 0.1146
H_ H_ 0.272926 0.210339 0.451893 0.1146
H_ H_ 0.269185 0.469217 0.446855 0.1146
H_ H_ 0.005349999999999966 0.219813 0.0218904 0.1146
H_ H_ 0.990689 0.478897 0.0137182 0.1146
H_ H_ 0.250906 0.231886 0.0157042 0.1146
H_ H_ 0.243409 0.480919 0.0175426 0.1146
H_ H_ 0.123227 0.117341 0.291608 0.42917
H_ H_ 0.127741 0.370352 0.299857 0.42917
H_ H_ 0.381148 0.127774 0.313704 0.42917
H_ H_ 0.372229 0.372742 0.298492 0.42917
H_ H_ 0.194753 0.128172 0.308722 0.1146
H_ H_ 0.199334 0.380674 0.304136 0.1146
H_ H_ 0.448902 0.120584 0.305417 0.1146
H_ H_ 0.442609 0.378979 0.308702 0.1146
H_ H_ 0.180247 0.0674184 0.313526 0.1146
H_ H_ 0.150299 0.322503 0.266408 0.1146
H_ H_ 0.41235 0.0689006 0.266608 0.1146
H_ H_ 0.433699 0.317788 0.311353 0.1146
H_ H_ 0.163896 0.0724616 0.267509 0.1146
H_ H_ 0.135559 0.310968 0.313452 0.1146
H_ H_ 0.38272 0.0527557 0.307458 0.1146
H_ H_ 0.414021 0.318893 0.262903 0.1146
H_ H_ 0.129325 0.0567102 0.300912 0.1146
H_ H_ 0.184708 0.321024 0.305666 0.1146
H_ H_ 0.438166 0.0662549 0.315233 0.1146
H_ H_ 0.384491 0.303357 0.301365 0.1146
H_ H_ 0.14304 0.219732 0.140962 0.42917
H_ H_ 0.128881 0.461545 0.12548 0.42917
H_ H_ 0.390433 0.219524 0.138364 0.42917
H_ H_ 0.381825 0.46497 0.130309 0.42917
C_ C_ 0.238376 0.156205 0.222465 -0.12085
C_ C_ 0.241366 0.403078 0.217918 -0.12085
C_ C_ 0.494553 0.154575 0.221977 -0.12085
C_ C_ 0.491599 0.408812 0.224696 -0.12085
C_ C_ 0.0111409 0.197823 0.297415 0.6956
C_ C_ 0.0112046 0.444507 0.300424 0.6956
C_ C_ 0.258312 0.19554 0.301467 0.6956
C_ C_ 0.264054 0.445169 0.295392 0.6956
C_ C_ 0.240938 0.185899 0.254782 -0.16651
C_ C_ 0.243114 0.433137 0.250717 -0.16651
C_ C_ 0.49447 0.184881 0.25666 -0.16651
C_ C_ 0.487306 0.43484 0.258653 -0.16651
C_ C_ 0.206058 0.19785 0.20252 -0.12085
C_ C_ 0.20621 0.442798 0.199897 -0.12085
C_ C_ 0.461356 0.195423 0.202301 -0.12085
C_ C_ 0.448832 0.444793 0.207724 -0.12085
C_ C_ 0.218736 0.146947 0.180566 0.16698
C_ C_ 0.222682 0.394413 0.175376 0.16698
C_ C_ 0.472661 0.145031 0.180166 0.16698
C_ C_ 0.470562 0.398764 0.182563 0.16698
C_ C_ 0.183478 0.120967 0.11931 0.36401
C_ C_ 0.180666 0.366551 0.117887 0.36401
C_ C_ 0.430099 0.118373 0.124566 0.36401
C_ C_ 0.435018 0.372219 0.121558 0.36401
C_ C_ 0.203909 0.168055 0.171833 0.16698
C_ C_ 0.20603 0.415126 0.167183 0.16698
C_ C_ 0.460036 0.167278 0.17073 0.16698
C_ C_ 0.450342 0.416944 0.174797 0.16698
C_ C_ 0.226421 0.207007 0.242481 -0.12085
C_ C_ 0.222978 0.450862 0.241113 -0.12085
C_ C_ 0.476975 0.204395 0.246206 -0.12085
C_ C_ 0.464922 0.451554 0.248765 -0.12085
C_ C_ 0.172097 0.101311 0.0715029 0.15351
C_ C_ 0.154565 0.337658 0.0795708 0.15351
C_ C_ 0.407579 0.0897063 0.0844586 0.15351
C_ C_ 0.417274 0.345525 0.079848 0.15351
C_ C_ 0.137595 0.0667304 0.0625342 -0.35079
C_ C_ 0.116414 0.311064 0.0922547 -0.35079
C_ C_ 0.367774 0.0634108 0.0894965 -0.35079
C_ C_ 0.375751 0.318906 0.084297 -0.35079
C_ C_ 0.0815464 0.0992436 0.0253669 -0.12085
C_ C_ 0.0771696 0.344563 0.0229257 -0.12085
C_ C_ 0.328155 0.0999244 0.022761 -0.12085
C_ C_ 0.331753 0.346606 0.0238274 -0.12085
C_ C_ 0.0667557 0.0601095 0.449895 0.6956
C_ C_ 0.0657831 0.308104 0.445979 0.6956
C_ C_ 0.312543 0.0561064 0.452299 0.6956
C_ C_ 0.316949 0.304234 0.451935 0.6956
C_ C_ 0.0531118 0.0728949 0.492526 -0.16651
C_ C_ 0.0556561 0.319282 0.489995 -0.16651
C_ C_ 0.303211 0.0673766 0.497403 -0.16651
C_ C_ 0.306119 0.314849 0.498137 -0.16651
C_ C_ 0.255004 0.0566727 0.0431724 -0.12085
C_ C_ 0.256363 0.308079 0.039259 -0.12085
C_ C_ 0.505186 0.054009 0.0446244 -0.12085
C_ C_ 0.508629 0.310842 0.0455551 -0.12085
C_ C_ 0.0698504 0.110245 0.0660913 0.16698
C_ C_ 0.0642906 0.355077 0.0607838 0.16698
C_ C_ 0.316917 0.107775 0.0656185 0.16698
C_ C_ 0.317524 0.35839 0.063076 0.16698
C_ C_ 0.0660232 0.125998 0.133288 0.36401
C_ C_ 0.060791 0.371349 0.129207 0.36401
C_ C_ 0.312564 0.12428 0.130894 0.36401
C_ C_ 0.312959 0.375741 0.127287 0.36401
C_ C_ 0.0338131 0.0897267 0.0741647 0.16698
C_ C_ 0.0286096 0.334119 0.0706088 0.16698
C_ C_ 0.281458 0.0861322 0.0739212 0.16698
C_ C_ 0.282338 0.337939 0.0711332 0.16698
C_ C_ 0.0168457 0.0505943 0.503509 -0.12085
C_ C_ 0.0203794 0.296882 0.500414 -0.12085
C_ C_ 0.270457 0.0453609 0.509865 -0.12085
C_ C_ 0.272397 0.29187 0.510309 -0.12085
C_ C_ 0.078194 0.14449 0.179897 0.15351
C_ C_ 0.0752587 0.385899 0.176701 0.15351
C_ C_ 0.324595 0.140172 0.177635 0.15351
C_ C_ 0.325497 0.389914 0.176438 0.15351
C_ C_ 0.0805071 0.179715 0.19207 -0.35079
C_ C_ 0.0886132 0.423388 0.194692 -0.35079
C_ C_ 0.329541 0.177636 0.194915 -0.35079
C_ C_ 0.335736 0.428232 0.19725 -0.35079
C_ C_ 0.0120566 0.0971921 0.276649 -0.12085
C_ C_ 0.00922851 0.346541 0.279021 -0.12085
C_ C_ 0.259715 0.0951165 0.28127 -0.12085
C_ C_ 0.26423 0.346677 0.275162 -0.12085
C_ C_ 0.237523 0.053086 0.201597 0.6956
C_ C_ 0.239978 0.303787 0.198505 0.6956
C_ C_ 0.483449 0.0477851 0.200589 0.6956
C_ C_ 0.486708 0.303276 0.205221 0.6956
C_ C_ 0.0106658 0.0665602 0.244593 -0.16651
C_ C_ 0.00559525 0.31607 0.246776 -0.16651
C_ C_ 0.257398 0.0651495 0.247922 -0.16651
C_ C_ 0.259309 0.314848 0.244886 -0.16651
C_ C_ 0.0409232 0.0551193 0.30084 -0.12085
C_ C_ 0.043364 0.304079 0.296371 -0.12085
C_ C_ 0.30054 0.0575924 0.297915 -0.12085
C_ C_ 0.292605 0.304357 0.297937 -0.12085
C_ C_ 0.0289982 0.105454 0.320141 0.16698
C_ C_ 0.0303062 0.35446 0.318873 0.16698
C_ C_ 0.284983 0.106957 0.320694 0.16698
C_ C_ 0.280988 0.354227 0.317537 0.16698
C_ C_ 0.0636667 0.132092 0.380756 0.36401
C_ C_ 0.0694568 0.381696 0.377359 0.36401
C_ C_ 0.315922 0.130338 0.385375 0.36401
C_ C_ 0.315722 0.379823 0.378491 0.36401
C_ C_ 0.0419924 0.0839532 0.33119 0.16698
C_ C_ 0.0485587 0.334574 0.32593 0.16698
C_ C_ 0.303444 0.0875485 0.329703 0.16698
C_ C_ 0.294886 0.333702 0.328145 0.16698
C_ C_ 0.0251414 0.0471833 0.257652 -0.12085
C_ C_ 0.0242715 0.296588 0.256097 -0.12085
C_ C_ 0.280141 0.0476446 0.257777 -0.12085
C_ C_ 0.276547 0.296179 0.25701 -0.12085
C_ C_ 0.0917564 0.16159 0.419543 0.15351
C_ C_ 0.0972075 0.41066 0.416271 0.15351
C_ C_ 0.342872 0.161106 0.421982 0.15351
C_ C_ 0.345444 0.408521 0.416519 0.15351
C_ C_ 0.125335 0.187887 0.407095 -0.35079
C_ C_ 0.129804 0.440321 0.405677 -0.35079
C_ C_ 0.380678 0.188694 0.413457 -0.35079
C_ C_ 0.383367 0.431603 0.405264 -0.35079
C_ C_ 0.167347 0.15459 0.476304 -0.12085
C_ C_ 0.176734 0.403294 0.474654 -0.12085
C_ C_ 0.41946 0.153362 0.475393 -0.12085
C_ C_ 0.418476 0.39849 0.473408 -0.12085
C_ C_ 0.184666 0.193393 0.0497652 0.6956
C_ C_ 0.180612 0.444611 0.0501336 0.6956
C_ C_ 0.434169 0.191877 0.0539443 0.6956
C_ C_ 0.434936 0.442025 0.0522437 0.6956
C_ C_ 0.198286 0.183773 0.00700508 -0.16651
C_ C_ 0.190379 0.433523 0.00661047 -0.16651
C_ C_ 0.442916 0.180813 0.00744802 -0.16651
C_ C_ 0.445009 0.431559 0.00718695 -0.16651
C_ C_ 1.00333658 0.196175 0.459238 -0.12085
C_ C_ 0.995926 0.441319 0.455513 -0.12085
C_ C_ 0.243813 0.19695 0.460564 -0.12085
C_ C_ 0.248085 0.44939 0.456969 -0.12085
C_ C_ 0.180663 0.144506 0.436418 0.16698
C_ C_ 0.188627 0.393678 0.434223 0.16698
C_ C_ 0.431763 0.145973 0.434389 0.16698
C_ C_ 0.432546 0.388911 0.434282 0.16698
C_ C_ 0.184332 0.12858 0.369837 0.36401
C_ C_ 0.191353 0.380876 0.36907 0.36401
C_ C_ 0.436135 0.124127 0.368539 0.36401
C_ C_ 0.433007 0.374502 0.366153 0.36401
C_ C_ 0.217157 0.167409 0.428368 0.16698
C_ C_ 0.226592 0.416038 0.427833 0.16698
C_ C_ 0.467741 0.166209 0.424364 0.16698
C_ C_ 0.467633 0.409786 0.426837 0.16698
C_ C_ 0.233797 0.204599 0.995896 -0.12085
C_ C_ 0.227844 0.455208 0.994781 -0.12085
C_ C_ 0.480546 0.201029 -0.0022140000000000493 -0.12085
C_ C_ 0.483274 0.449497 0.99811838 -0.12085
C_ C_ 0.169988 0.113453 0.321045 0.15351
C_ C_ 0.175303 0.368294 0.322634 0.15351
C_ C_ 0.42288 0.109286 0.322123 0.15351
C_ C_ 0.417617 0.361151 0.317984 0.15351
C_ C_ 0.159162 0.0756539 0.300553 -0.35079
C_ C_ 0.1604 0.328967 0.300953 -0.35079
C_ C_ 0.412844 0.0707497 0.301664 -0.35079
C_ C_ 0.411129 0.323666 0.299385 -0.35079
N_ N_ 0.206512 0.116177 0.147849 -0.51457
N_ N_ 0.207784 0.363042 0.144728 -0.51457
N_ N_ 0.45652 0.113929 0.15001 -0.51457
N_ N_ 0.460858 0.369194 0.148885 -0.51457
N_ N_ 0.18319 0.153317 0.133261 -0.51457
N_ N_ 0.178509 0.397677 0.132196 -0.51457
N_ N_ 0.430906 0.150713 0.136979 -0.51457
N_ N_ 0.429571 0.402124 0.133913 -0.51457
N_ N_ 0.090844 0.135705 0.103931 -0.51457
N_ N_ 0.0861212 0.38037 0.098665 -0.51457
N_ N_ 0.338603 0.133271 0.102802 -0.51457
N_ N_ 0.339679 0.38355 0.0991315 -0.51457
N_ N_ 0.0297278 0.0983991 0.116241 -0.51457
N_ N_ 0.0251522 0.344252 0.11243 -0.51457
N_ N_ 0.27754 0.0954462 0.114839 -0.51457
N_ N_ 0.276289 0.347436 0.110563 -0.51457
N_ N_ 0.0414294 0.136186 0.352063 -0.51457
N_ N_ 0.0432394 0.385063 0.351377 -0.51457
N_ N_ 0.290839 0.133115 0.356229 -0.51457
N_ N_ 0.293573 0.38445 0.348885 -0.51457
N_ N_ 0.0663853 0.100123 0.367621 -0.51457
N_ N_ 0.0730227 0.350463 0.362878 -0.51457
N_ N_ 0.322237 0.100786 0.369864 -0.51457
N_ N_ 0.317261 0.348325 0.365337 -0.51457
N_ N_ 0.159362 0.119738 0.399191 -0.51457
N_ N_ 0.165571 0.370636 0.397445 -0.51457
N_ N_ 0.409264 0.118773 0.399179 -0.51457
N_ N_ 0.408528 0.364418 0.397195 -0.51457
N_ N_ 0.220989 0.156021 0.38674 -0.51457
N_ N_ 0.227152 0.407686 0.385775 -0.51457
N_ N_ 0.471279 0.153711 0.383419 -0.51457
N_ N_ 0.469214 0.403462 0.385238 -0.51457
O_ O_ 0.0242897 0.229531 0.322114 -0.61362
O_ O_ 0.0180292 0.474738 0.326926 -0.61362
O_ O_ 0.265903 0.226211 0.328801 -0.61362
O_ O_ 0.271627 0.476725 0.319846 -0.61362
O_ O_ 0.0621964 0.223595 0.380751 -0.98607
O_ O_ 0.0577371 0.467724 0.384046 -0.98607
O_ O_ 0.307763 0.218471 0.382935 -0.98607
O_ O_ 0.308824 0.46835 0.382828 -0.98607
O_ O_ 0.0154007 0.175204 0.311522 -0.61362
O_ O_ 0.0225412 0.423921 0.310987 -0.61362
O_ O_ 0.269726 0.175277 0.31469 -0.61362
O_ O_ 0.27203 0.424027 0.308316 -0.61362
O_ O_ 0.201911 0.0960819 0.0547733 -0.55956
O_ O_ 0.173712 0.32165 0.0577348 -0.55956
O_ O_ 0.429851 0.0756061 0.0682033 -0.55956
O_ O_ 0.437957 0.329995 0.0627759 -0.55956
O_ O_ 0.0440426 0.0308978 0.422722 -0.61362
O_ O_ 0.042558 0.277525 0.419786 -0.61362
O_ O_ 0.289225 0.0253461 0.425096 -0.61362
O_ O_ 0.294304 0.27261 0.426136 -0.61362
O_ O_ 0.0957653 0.0394922 0.377636 -0.98607
O_ O_ 0.0971014 0.288576 0.37089 -0.98607
O_ O_ 0.342618 0.0356829 0.368786 -0.98607
O_ O_ 0.340726 0.284074 0.365787 -0.98607
O_ O_ 0.0973819 0.0813766 0.43945 -0.61362
O_ O_ 0.0994087 0.32874 0.436223 -0.61362
O_ O_ 0.344973 0.0768838 0.441376 -0.61362
O_ O_ 0.341378 0.327554 0.436017 -0.61362
O_ O_ 0.112078 0.148159 0.194752 -0.55956
O_ O_ 0.103617 0.379114 0.187061 -0.55956
O_ O_ 0.357882 0.139798 0.186617 -0.55956
O_ O_ 0.354001 0.384552 0.186095 -0.55956
O_ O_ 0.226926 0.0213305 0.17739 -0.61362
O_ O_ 0.232872 0.272744 0.171236 -0.61362
O_ O_ 0.476729 0.0172126 0.17535 -0.61362
O_ O_ 0.480521 0.272448 0.178748 -0.61362
O_ O_ 0.189594 0.031885 0.119499 -0.98607
O_ O_ 0.19173 0.280489 0.116465 -0.98607
O_ O_ 0.439832 0.0297641 0.11664 -0.98607
O_ O_ 0.44712 0.283966 0.120116 -0.98607
O_ O_ 0.228622 0.0736301 0.187343 -0.61362
O_ O_ 0.238072 0.327555 0.185059 -0.61362
O_ O_ 0.476812 0.0692405 0.18696 -0.61362
O_ O_ 0.48195 0.326168 0.189699 -0.61362
O_ O_ 0.075024 0.174412 0.448292 -0.55956
O_ O_ 0.0789646 0.423298 0.443874 -0.55956
O_ O_ 0.323089 0.175715 0.441579 -0.55956
O_ O_ 0.330356 0.4292 0.434153 -0.55956
O_ O_ 0.208454 0.223762 0.0793144 -0.61362
O_ O_ 0.202414 0.476833 0.0769654 -0.61362
O_ O_ 0.453063 0.223713 0.0772934 -0.61362
O_ O_ 0.454388 0.474021 0.0761889 -0.61362
O_ O_ 0.160339 0.214414 0.131505 -0.98607
O_ O_ 0.1513 0.459537 0.125838 -0.98607
O_ O_ 0.40865 0.212918 0.131031 -0.98607
O_ O_ 0.40286 0.46253 0.125461 -0.98607
O_ O_ 0.155642 0.170463 0.0607191 -0.61362
O_ O_ 0.15167 0.421302 0.0620134 -0.61362
O_ O_ 0.413077 0.16843 0.070229 -0.61362
O_ O_ 0.403493 0.42153 0.0624046 -0.61362
O_ O_ 0.140095 0.117997 0.310589 -0.55956
O_ O_ 0.147507 0.374749 0.31655 -0.55956
O_ O_ 0.393024 0.114195 0.312128 -0.55956
O_ O_ 0.386762 0.366081 0.309438 -0.55956
Zn Zn 0.0217932 0.170062 0.861141 0.91541
Zn Zn 0.0212628 0.420847 0.862053 0.91541
Zn Zn 0.276622 0.174358 0.863996 0.91541
Zn Zn 0.270115 0.420889 0.861168 0.91541
Zn Zn 0.107934 0.0817916 0.884002 0.91541
Zn Zn 0.10203 0.328652 0.886555 0.91541
Zn Zn 0.350354 0.0791538 0.883168 0.91541
Zn Zn 0.35454 0.332357 0.88743 0.91541
Zn Zn 0.223418 0.0765355 0.638777 0.91541
Zn Zn 0.225492 0.325156 0.639171 0.91541
Zn Zn 0.474583 0.0801463 0.637715 0.91541
Zn Zn 0.475174 0.330112 0.637569 0.91541
Zn Zn 0.144795 0.168623 0.61707 0.91541
Zn Zn 0.146518 0.417502 0.613764 0.91541
Zn Zn 0.397249 0.173715 0.615779 0.91541
Zn Zn 0.396846 0.420183 0.616872 0.91541
Zn Zn 0.054764 0.00269522 0.873815 1.11764
Zn Zn 0.0508587 0.247741 0.873137 1.11764
Zn Zn 0.302701 0.000142481 0.87149 1.11764
Zn Zn 0.303841 0.252623 0.869677 1.11764
Zn Zn 0.201168 0.495995 0.623905 1.11764
Zn Zn 0.192505 0.244385 0.631438 1.11764
Zn Zn 0.447576 0.495883 0.626523 1.11764
Zn Zn 0.447393 0.251838 0.623297 1.11764
H_ H_ 0.251411 0.140973 0.727993 0.1146
H_ H_ 0.252259 0.389298 0.732152 0.1146
H_ H_ 0.503166 0.143919 0.730251 0.1146
H_ H_ 0.504466 0.392908 0.729541 0.1146
H_ H_ 0.18946 0.209599 0.696799 0.1146
H_ H_ 0.184742 0.452547 0.69347 0.1146
H_ H_ 0.450892 0.216618 0.693753 0.1146
H_ H_ 0.438927 0.463126 0.705135 0.1146
H_ H_ 0.225019 0.22752 0.767858 0.1146
H_ H_ 0.219882 0.475214 0.767612 0.1146
H_ H_ 0.469567 0.230388 0.773638 0.1146
H_ H_ 0.472718 0.477957 0.776342 0.1146
H_ H_ 0.176496 0.0655369 0.541845 0.42917
H_ H_ 0.182676 0.316013 0.542564 0.42917
H_ H_ 0.448766 0.0828066 0.539205 0.42917
H_ H_ 0.444579 0.32714 0.538745 0.42917
H_ H_ 0.139172 0.100811 0.569621 0.1146
H_ H_ 0.14678 0.350295 0.563807 0.1146
H_ H_ 0.409026 0.1127 0.559629 0.1146
H_ H_ 0.40261 0.360159 0.560894 0.1146
H_ H_ 0.090388 0.0684562 0.607317 0.1146
H_ H_ 0.101603 0.298148 0.572001 0.1146
H_ H_ 0.356535 0.0840553 0.600575 0.1146
H_ H_ 0.357685 0.328146 0.608295 0.1146
H_ H_ 0.100829 0.0346163 0.580324 0.1146
H_ H_ 0.127421 0.303367 0.619394 0.1146
H_ H_ 0.356989 0.0564212 0.551125 0.1146
H_ H_ 0.35761 0.302627 0.557661 0.1146
H_ H_ 0.124481 0.0603701 0.63379 0.1146
H_ H_ 0.105633 0.332319 0.622462 0.1146
H_ H_ 0.376575 0.0572355 0.60493 0.1146
H_ H_ 0.380618 0.298125 0.600321 0.1146
H_ H_ 0.0763594 0.220189 0.899728 0.42917
H_ H_ 0.0765169 0.471247 0.900933 0.42917
H_ H_ 0.328775 0.222509 0.896457 0.42917
H_ H_ 0.323977 0.472867 0.896778 0.42917
H_ H_ 0.107966 0.115662 0.525061 0.1146
H_ H_ 0.103603 0.370325 0.514888 0.1146
H_ H_ 0.355775 0.118032 0.521433 0.1146
H_ H_ 0.35255 0.36553 0.52038 0.1146
H_ H_ 0.229252 0.0391149 0.5553 0.1146
H_ H_ 0.234666 0.282763 0.557675 0.1146
H_ H_ 0.48128 0.0377723 0.553701 0.1146
H_ H_ 0.488474 0.28719 0.56164 0.1146
H_ H_ 0.242708 0.0256638 0.977271 0.1146
H_ H_ 0.247285 0.277131 0.973643 0.1146
H_ H_ 0.493901 0.0221878 0.98117 0.1146
H_ H_ 0.497247 0.277303 0.982735 0.1146
H_ H_ 0.125481 0.140079 0.700752 0.42917
H_ H_ 0.128746 0.375975 0.676502 0.42917
H_ H_ 0.381087 0.139349 0.697413 0.42917
H_ H_ 0.379998 0.412586 0.719418 0.42917
H_ H_ 0.0473337 0.126676 0.693374 0.1146
H_ H_ 0.0596333 0.375166 0.692105 0.1146
H_ H_ 0.302068 0.128796 0.69438 0.1146
H_ H_ 0.30433 0.381995 0.701075 0.1146
H_ H_ 0.0749443 0.185511 0.727846 0.1146
H_ H_ 0.0670835 0.433457 0.691302 0.1146
H_ H_ 0.374283 0.192548 0.688736 0.1146
H_ H_ 0.306254 0.43364 0.668423 0.1146
H_ H_ 0.104377 0.195456 0.688292 0.1146
H_ H_ 0.100484 0.438821 0.730869 0.1146
H_ H_ 0.324742 0.189536 0.69343 0.1146
H_ H_ 0.314851 0.438961 0.723506 0.1146
H_ H_ 0.049907 0.176082 0.675752 0.1146
H_ H_ 0.119046 0.443536 0.682812 0.1146
H_ H_ 0.350089 0.186523 0.735569 0.1146
H_ H_ 0.352458 0.45207 0.694761 0.1146
H_ H_ 0.118177 0.034336 0.862524 0.42917
H_ H_ 0.113964 0.280933 0.877377 0.42917
H_ H_ 0.365199 0.0320528 0.86041 0.42917
H_ H_ 0.362031 0.284136 0.85112 0.42917
H_ H_ 0.00610108 0.112758 0.770611 0.1146
H_ H_ -0.008781000000000039 0.354103 0.771694 0.1146
H_ H_ 0.244283 0.109165 0.765974 0.1146
H_ H_ 0.248539 0.358145 0.769483 0.1146
H_ H_ 0.0516371 0.0323008 0.801421 0.1146
H_ H_ 0.063575 0.291016 0.80599 0.1146
H_ H_ 0.305612 0.0391974 0.804281 0.1146
H_ H_ 0.314019 0.292236 0.805635 0.1146
H_ H_ 0.0188495 0.0176621 0.735604 0.1146
H_ H_ 0.0296334 0.271622 0.730337 0.1146
H_ H_ 0.272377 0.0204145 0.734029 0.1146
H_ H_ 0.27184 0.26873 0.734896 0.1146
H_ H_ 0.0485765 0.167083 0.944648 0.42917
H_ H_ 0.0526686 0.432049 0.955132 0.42917
H_ H_ 0.315033 0.177436 0.960451 0.42917
H_ H_ 0.309236 0.428316 0.964789 0.42917
H_ H_ 0.106 0.146919 0.936474 0.1146
H_ H_ 0.0942072 0.398013 0.939445 0.1146
H_ H_ 0.350334 0.142614 0.931132 0.1146
H_ H_ 0.346065 0.39592 0.942573 0.1146
H_ H_ 0.118226 0.194192 0.885549 0.1146
H_ H_ 0.144536 0.422805 0.898095 0.1146
H_ H_ 0.39315 0.168261 0.886206 0.1146
H_ H_ 0.393028 0.422821 0.897933 0.1146
H_ H_ 0.146285 0.17137 0.887098 0.1146
H_ H_ 0.141387 0.458311 0.93678 0.1146
H_ H_ 0.391185 0.204193 0.926305 0.1146
H_ H_ 0.391513 0.454097 0.940779 0.1146
H_ H_ 0.149073 0.206447 0.934923 0.1146
H_ H_ 0.121875 0.442402 0.881236 0.1146
H_ H_ 0.366717 0.189836 0.871516 0.1146
H_ H_ 0.369006 0.44678 0.891145 0.1146
H_ H_ 0.169638 0.0257638 0.597179 0.42917
H_ H_ 0.174419 0.275152 0.600692 0.42917
H_ H_ 0.423073 0.0297369 0.6017 0.42917
H_ H_ 0.429842 0.278888 0.592745 0.42917
H_ H_ 0.142483 0.136386 0.9768 0.1146
H_ H_ 0.13665 0.390636 0.980914 0.1146
H_ H_ 0.385829 0.137403 0.974324 0.1146
H_ H_ 0.388791 0.387267 0.979901 0.1146
H_ H_ 0.0177175 0.211357 0.942434 0.1146
H_ H_ 0.0100369 0.464169 0.939972 0.1146
H_ H_ 0.271784 0.2121 0.946797 0.1146
H_ H_ 0.260102 0.46528 0.945122 0.1146
H_ H_ 0.0125517 0.226074 0.526658 0.1146
H_ H_ 0.00363979 0.476023 0.518685 0.1146
H_ H_ 0.254686 0.226507 0.526462 0.1146
H_ H_ 0.251261 0.479805 0.519578 0.1146
H_ H_ 0.134972 0.123011 0.794693 0.42917
H_ H_ 0.128268 0.351349 0.791277 0.42917
H_ H_ 0.376467 0.127111 0.799494 0.42917
H_ H_ 0.382434 0.376036 0.816599 0.42917
H_ H_ 0.201284 0.125068 0.803154 0.1146
H_ H_ 0.197046 0.369737 0.808004 0.1146
H_ H_ 0.44368 0.125404 0.804281 0.1146
H_ H_ 0.452207 0.37516 0.808294 0.1146
H_ H_ 0.184997 0.0678639 0.827362 0.1146
H_ H_ 0.197356 0.316092 0.830409 0.1146
H_ H_ 0.399762 0.0690152 0.765081 0.1146
H_ H_ 0.427435 0.317782 0.770945 0.1146
H_ H_ 0.173129 0.063285 0.772907 0.1146
H_ H_ 0.170402 0.304098 0.779789 0.1146
H_ H_ 0.370564 0.0604527 0.810472 0.1146
H_ H_ 0.38969 0.308223 0.805473 0.1146
H_ H_ 0.134467 0.0574297 0.806571 0.1146
H_ H_ 0.145347 0.302071 0.827575 0.1146
H_ H_ 0.417169 0.0640347 0.808192 0.1146
H_ H_ 0.436971 0.315898 0.821673 0.1146
H_ H_ 0.127558 0.214482 0.62985 0.42917
H_ H_ 0.137058 0.463239 0.627429 0.42917
H_ H_ 0.385153 0.223991 0.631926 0.42917
H_ H_ 0.386103 0.465189 0.629827 0.42917
C_ C_ 0.23749 0.156151 0.723885 -0.12085
C_ C_ 0.240404 0.405626 0.724762 -0.12085
C_ C_ 0.485779 0.155469 0.725596 -0.12085
C_ C_ 0.487107 0.406411 0.726538 -0.12085
C_ C_ 0.0142556 0.197445 0.796792 0.6956
C_ C_ 0.0172742 0.446429 0.79905 0.6956
C_ C_ 0.26736 0.200565 0.798605 0.6956
C_ C_ 0.263472 0.446619 0.798546 0.6956
C_ C_ 0.243891 0.18774 0.755908 -0.16651
C_ C_ 0.242302 0.435531 0.755257 -0.16651
C_ C_ 0.488009 0.18731 0.759582 -0.16651
C_ C_ 0.492218 0.436635 0.759293 -0.16651
C_ C_ 0.203729 0.195915 0.705695 -0.12085
C_ C_ 0.205463 0.443435 0.702807 -0.12085
C_ C_ 0.456432 0.199753 0.70528 -0.12085
C_ C_ 0.454175 0.447561 0.709567 -0.12085
C_ C_ 0.218728 0.146743 0.682826 0.16698
C_ C_ 0.221675 0.395844 0.682656 0.16698
C_ C_ 0.46601 0.146906 0.6849 0.16698
C_ C_ 0.468825 0.398821 0.685589 0.16698
C_ C_ 0.17881 0.118429 0.625914 0.36401
C_ C_ 0.186409 0.368708 0.621913 0.36401
C_ C_ 0.433569 0.123681 0.623291 0.36401
C_ C_ 0.43481 0.373565 0.624594 0.36401
C_ C_ 0.200154 0.16543 0.67533 0.16698
C_ C_ 0.208346 0.416586 0.670899 0.16698
C_ C_ 0.447776 0.166754 0.678056 0.16698
C_ C_ 0.453238 0.420047 0.678321 0.16698
C_ C_ 0.226198 0.206746 0.744933 -0.12085
C_ C_ 0.221843 0.452877 0.744533 -0.12085
C_ C_ 0.471233 0.207325 0.749285 -0.12085
C_ C_ 0.474345 0.456418 0.750012 -0.12085
C_ C_ 0.150676 0.0881535 0.58807 0.15351
C_ C_ 0.15675 0.340324 0.586743 0.15351
C_ C_ 0.414343 0.0987832 0.579634 0.15351
C_ C_ 0.412082 0.3463 0.581198 0.15351
C_ C_ 0.1155 0.0615333 0.602509 -0.35079
C_ C_ 0.120323 0.317792 0.601252 -0.35079
C_ C_ 0.373864 0.0713406 0.583668 -0.35079
C_ C_ 0.376353 0.316958 0.589215 -0.35079
C_ C_ 0.0797354 0.101848 0.527208 -0.12085
C_ C_ 0.0806605 0.351452 0.524002 -0.12085
C_ C_ 0.328236 0.102146 0.528008 -0.12085
C_ C_ 0.329292 0.347281 0.52885 -0.12085
C_ C_ 0.065847 0.0582113 0.949937 0.6956
C_ C_ 0.061833 0.303311 0.947585 0.6956
C_ C_ 0.313348 0.0562979 0.946058 0.6956
C_ C_ 0.317497 0.307497 0.945714 0.6956
C_ C_ 0.053386 0.0715285 0.991411 -0.16651
C_ C_ 0.0504805 0.315073 0.990106 -0.16651
C_ C_ 0.30176 0.0685202 0.990287 -0.16651
C_ C_ 0.305945 0.320382 0.98954 -0.16651
C_ C_ 0.255914 0.0575285 0.547018 -0.12085
C_ C_ 0.258462 0.302399 0.549241 -0.12085
C_ C_ 0.507928 0.0566929 0.54539 -0.12085
C_ C_ 0.509472 0.30539 0.548242 -0.12085
C_ C_ 0.0659482 0.110202 0.567243 0.16698
C_ C_ 0.0676945 0.3595 0.563782 0.16698
C_ C_ 0.314819 0.1133 0.566661 0.16698
C_ C_ 0.318313 0.355322 0.569611 0.16698
C_ C_ 0.0612912 0.125113 0.633695 0.36401
C_ C_ 0.0660065 0.374283 0.630343 0.36401
C_ C_ 0.311894 0.128056 0.63431 0.36401
C_ C_ 0.314039 0.375166 0.636297 0.36401
C_ C_ 0.0312523 0.0876293 0.576434 0.16698
C_ C_ 0.033405 0.336531 0.57322 0.16698
C_ C_ 0.278255 0.0901634 0.575316 0.16698
C_ C_ 0.282793 0.335156 0.579355 0.16698
C_ C_ 0.0167635 0.0506823 0.00205893 -0.12085
C_ C_ 0.0164559 0.292702 0.00213196 -0.12085
C_ C_ 0.264268 0.0475376 0.0019599999999999618 -0.12085
C_ C_ 0.268237 0.299819 0.998684 -0.12085
C_ C_ 0.073642 0.142636 0.68048 0.15351
C_ C_ 0.0822349 0.38991 0.677824 0.15351
C_ C_ 0.327201 0.139415 0.678332 0.15351
C_ C_ 0.325204 0.396287 0.682542 0.15351
C_ C_ 0.0755085 0.176934 0.692868 -0.35079
C_ C_ 0.0938428 0.427976 0.696466 -0.35079
C_ C_ 0.344255 0.179326 0.698739 -0.35079
C_ C_ 0.325006 0.431249 0.691427 -0.35079
C_ C_ 0.0124858 0.0936665 0.775807 -0.12085
C_ C_ 0.00677793 0.34168 0.778344 -0.12085
C_ C_ 0.26 0.0942889 0.772904 -0.12085
C_ C_ 0.262764 0.345245 0.778324 -0.12085
C_ C_ 0.232563 0.0497128 0.697557 0.6956
C_ C_ 0.233424 0.299513 0.703255 0.6956
C_ C_ 0.486344 0.0563737 0.703008 0.6956
C_ C_ 0.482957 0.300961 0.700358 0.6956
C_ C_ 0.0069304 0.0622173 0.743566 -0.16651
C_ C_ 0.00781555 0.313312 0.745399 -0.16651
C_ C_ 0.254471 0.0619158 0.742004 -0.16651
C_ C_ 0.257556 0.312067 0.746597 -0.16651
C_ C_ 0.038117 0.0498419 0.796361 -0.12085
C_ C_ 0.0503873 0.305702 0.794538 -0.12085
C_ C_ 0.289909 0.0523278 0.79825 -0.12085
C_ C_ 0.297229 0.304438 0.797675 -0.12085
C_ C_ 0.0259262 0.0999495 0.819909 0.16698
C_ C_ 0.0308911 0.353235 0.81623 0.16698
C_ C_ 0.277432 0.101643 0.815907 0.16698
C_ C_ 0.285484 0.356922 0.816776 0.16698
C_ C_ 0.0678345 0.127881 0.877196 0.36401
C_ C_ 0.0634792 0.379733 0.877461 0.36401
C_ C_ 0.311523 0.126844 0.878452 0.36401
C_ C_ 0.315269 0.380336 0.879334 0.36401
C_ C_ 0.043359 0.0803442 0.828344 0.16698
C_ C_ 0.0520472 0.335866 0.824133 0.16698
C_ C_ 0.294782 0.082621 0.826472 0.16698
C_ C_ 0.303027 0.336927 0.825838 0.16698
C_ C_ 0.0222368 0.0425297 0.756511 -0.12085
C_ C_ 0.0286153 0.294777 0.753563 -0.12085
C_ C_ 0.273149 0.0433398 0.755582 -0.12085
C_ C_ 0.276056 0.292898 0.756852 -0.12085
C_ C_ 0.0931542 0.156365 0.917106 0.15351
C_ C_ 0.0867301 0.409998 0.91752 0.15351
C_ C_ 0.340711 0.156723 0.913401 0.15351
C_ C_ 0.336133 0.407693 0.920988 0.15351
C_ C_ 0.128235 0.18423 0.906006 -0.35079
C_ C_ 0.124946 0.436099 0.909011 -0.35079
C_ C_ 0.373978 0.180635 0.898474 -0.35079
C_ C_ 0.373341 0.434035 0.911282 -0.35079
C_ C_ 0.173215 0.151044 0.976151 -0.12085
C_ C_ 0.166082 0.401489 0.975999 -0.12085
C_ C_ 0.416947 0.150088 0.972771 -0.12085
C_ C_ 0.419819 0.399622 0.97578 -0.12085
C_ C_ 0.180143 0.194742 0.55162 0.6956
C_ C_ 0.194175 0.443964 0.551904 0.6956
C_ C_ 0.432728 0.196811 0.551144 0.6956
C_ C_ 0.435637 0.441347 0.551694 0.6956
C_ C_ 0.194286 0.184462 0.509037 -0.16651
C_ C_ 0.202169 0.43309 0.507184 -0.16651
C_ C_ 0.445676 0.184988 0.50771 -0.16651
C_ C_ 0.443357 0.429977 0.50695 -0.16651
C_ C_ 0.993029 0.194341 0.953561 -0.12085
C_ C_ 0.988772 0.445594 0.95253 -0.12085
C_ C_ 0.246293 0.194628 0.957329 -0.12085
C_ C_ 0.238442 0.445411 0.95561 -0.12085
C_ C_ 0.186893 0.140126 0.935664 0.16698
C_ C_ 0.181144 0.391111 0.935927 0.16698
C_ C_ 0.429564 0.137609 0.935075 0.16698
C_ C_ 0.431998 0.391125 0.934754 0.16698
C_ C_ 0.186845 0.129063 0.86717 0.36401
C_ C_ 0.186559 0.371351 0.87216 0.36401
C_ C_ 0.43195 0.125484 0.869225 0.36401
C_ C_ 0.436311 0.376801 0.869144 0.36401
C_ C_ 0.223414 0.161983 0.927883 0.16698
C_ C_ 0.218013 0.411756 0.929012 0.16698
C_ C_ 0.466278 0.157921 0.928664 0.16698
C_ C_ 0.469803 0.411069 0.926874 0.16698
C_ C_ 0.233743 0.203216 0.501961 -0.12085
C_ C_ 0.23651 0.455951 0.497786 -0.12085
C_ C_ 0.480296 0.208257 0.496583 -0.12085
C_ C_ 0.479318 0.451179 0.496145 -0.12085
C_ C_ 0.177036 0.111436 0.818965 0.15351
C_ C_ 0.175384 0.354426 0.824415 0.15351
C_ C_ 0.418304 0.114092 0.82098 0.15351
C_ C_ 0.426597 0.360201 0.821833 0.15351
C_ C_ 0.166385 0.0722622 0.804559 -0.35079
C_ C_ 0.172792 0.317699 0.8144 -0.35079
C_ C_ 0.3992 0.074073 0.798492 -0.35079
C_ C_ 0.42005 0.323455 0.802505 -0.35079
N_ N_ 0.203416 0.11433 0.651975 -0.51457
N_ N_ 0.208079 0.364447 0.652664 -0.51457
N_ N_ 0.457509 0.119 0.649734 -0.51457
N_ N_ 0.45833 0.36928 0.651437 -0.51457
N_ N_ 0.175629 0.149138 0.639932 -0.51457
N_ N_ 0.184267 0.400777 0.635304 -0.51457
N_ N_ 0.428369 0.154164 0.639198 -0.51457
N_ N_ 0.430359 0.404064 0.640387 -0.51457
N_ N_ 0.0871468 0.133956 0.604021 -0.51457
N_ N_ 0.0900488 0.383597 0.600327 -0.51457
N_ N_ 0.338082 0.137521 0.604276 -0.51457
N_ N_ 0.340096 0.38311 0.605808 -0.51457
N_ N_ 0.0267177 0.0959716 0.618046 -0.51457
N_ N_ 0.0313898 0.345525 0.615302 -0.51457
N_ N_ 0.275908 0.0995408 0.615865 -0.51457
N_ N_ 0.27807 0.346129 0.620537 -0.51457
N_ N_ 0.0416005 0.13177 0.851535 -0.51457
N_ N_ 0.038842 0.38178 0.85064 -0.51457
N_ N_ 0.287361 0.129946 0.850475 -0.51457
N_ N_ 0.292793 0.384791 0.850302 -0.51457
N_ N_ 0.0706692 0.0969091 0.863888 -0.51457
N_ N_ 0.0732143 0.351788 0.863536 -0.51457
N_ N_ 0.314378 0.0972538 0.865171 -0.51457
N_ N_ 0.321727 0.351763 0.86595 -0.51457
N_ N_ 0.163348 0.118694 0.897189 -0.51457
N_ N_ 0.160725 0.364151 0.90034 -0.51457
N_ N_ 0.406267 0.115923 0.89776 -0.51457
N_ N_ 0.409755 0.367486 0.898191 -0.51457
N_ N_ 0.22407 0.154726 0.885359 -0.51457
N_ N_ 0.222531 0.399714 0.888158 -0.51457
N_ N_ 0.468278 0.152745 0.886828 -0.51457
N_ N_ 0.472257 0.404636 0.885746 -0.51457
O_ O_ 0.0188411 0.226141 0.823409 -0.61362
O_ O_ 0.0143705 0.473039 0.82659 -0.61362
O_ O_ 0.269249 0.229233 0.82462 -0.61362
O_ O_ 0.269747 0.477429 0.82595 -0.61362
O_ O_ 0.0568794 0.215323 0.881272 -0.98607
O_ O_ 0.0569438 0.465457 0.880914 -0.98607
O_ O_ 0.307667 0.21765 0.881383 -0.98607
O_ O_ 0.301376 0.465884 0.884062 -0.98607
O_ O_ 0.0142877 0.17416 0.810193 -0.61362
O_ O_ 0.02494 0.424892 0.811574 -0.61362
O_ O_ 0.275699 0.17854 0.811411 -0.61362
O_ O_ 0.27255 0.425026 0.810332 -0.61362
O_ O_ 0.16754 0.0713333 0.564988 -0.55956
O_ O_ 0.172106 0.320754 0.565126 -0.55956
O_ O_ 0.434618 0.0842476 0.559799 -0.55956
O_ O_ 0.432608 0.333589 0.55981 -0.55956
O_ O_ 0.0461277 0.0262532 0.925599 -0.61362
O_ O_ 0.037779 0.272428 0.919902 -0.61362
O_ O_ 0.290914 0.0241536 0.917946 -0.61362
O_ O_ 0.293973 0.276438 0.919132 -0.61362
O_ O_ 0.0971809 0.0374671 0.870832 -0.98607
O_ O_ 0.0927862 0.284073 0.874871 -0.98607
O_ O_ 0.343504 0.0345182 0.866703 -0.98607
O_ O_ 0.3426 0.28699 0.864581 -0.98607
O_ O_ 0.0932734 0.0808865 0.935305 -0.61362
O_ O_ 0.0919234 0.32585 0.936525 -0.61362
O_ O_ 0.344423 0.0771378 0.935668 -0.61362
O_ O_ 0.350924 0.326788 0.936802 -0.61362
O_ O_ 0.103184 0.141844 0.700515 -0.55956
O_ O_ 0.110586 0.383386 0.687203 -0.55956
O_ O_ 0.357253 0.132838 0.685337 -0.55956
O_ O_ 0.360279 0.401749 0.697763 -0.55956
O_ O_ 0.231823 0.0216077 0.669803 -0.61362
O_ O_ 0.229761 0.270188 0.675606 -0.61362
O_ O_ 0.479387 0.0263925 0.6758 -0.61362
O_ O_ 0.473727 0.269101 0.674504 -0.61362
O_ O_ 0.188127 0.0313261 0.616806 -0.98607
O_ O_ 0.191402 0.280061 0.621605 -0.98607
O_ O_ 0.443798 0.0363694 0.619795 -0.98607
O_ O_ 0.444644 0.28558 0.615747 -0.98607
O_ O_ 0.218566 0.0688731 0.687265 -0.61362
O_ O_ 0.228472 0.322085 0.690495 -0.61362
O_ O_ 0.482878 0.0798701 0.689732 -0.61362
O_ O_ 0.481333 0.325178 0.687301 -0.61362
O_ O_ 0.0726417 0.169964 0.939089 -0.55956
O_ O_ 0.065912 0.42545 0.935235 -0.55956
O_ O_ 0.324188 0.174144 0.936202 -0.55956
O_ O_ 0.31508 0.420669 0.939899 -0.55956
O_ O_ 0.200815 0.225759 0.579811 -0.61362
O_ O_ 0.215144 0.476197 0.579116 -0.61362
O_ O_ 0.458174 0.22538 0.577279 -0.61362
O_ O_ 0.457427 0.473032 0.577153 -0.61362
O_ O_ 0.147601 0.210338 0.630852 -0.98607
O_ O_ 0.158541 0.460869 0.623802 -0.98607
O_ O_ 0.405041 0.218372 0.628065 -0.98607
O_ O_ 0.407343 0.462849 0.628191 -0.98607
O_ O_ 0.153634 0.171024 0.564887 -0.61362
O_ O_ 0.166306 0.420779 0.562861 -0.61362
O_ O_ 0.401824 0.174445 0.563988 -0.61362
O_ O_ 0.406663 0.419023 0.56443 -0.61362
O_ O_ 0.145872 0.112425 0.804844 -0.55956
O_ O_ 0.144122 0.354587 0.81168 -0.55956
O_ O_ 0.39386 0.125824 0.816215 -0.55956
O_ O_ 0.397266 0.365617 0.811719 -0.55956
Zn Zn 0.0246853 0.673369 0.361688 0.91541
Zn Zn 0.0265042 0.924701 0.363658 0.91541
Zn Zn 0.272557 0.672751 0.364455 0.91541
Zn Zn 0.275154 0.922181 0.362478 0.91541
Zn Zn 0.101726 0.579834 0.38658 0.91541
Zn Zn 0.103264 0.829599 0.384254 0.91541
Zn Zn 0.352347 0.580324 0.385485 0.91541
Zn Zn 0.357011 0.832548 0.386974 0.91541
Zn Zn 0.221034 0.572474 0.137332 0.91541
Zn Zn 0.222331 0.826406 0.134189 0.91541
Zn Zn 0.475977 0.578197 0.14192 0.91541
Zn Zn 0.476265 0.826763 0.137219 0.91541
Zn Zn 0.146012 0.670172 0.109112 0.91541
Zn Zn 0.14342 0.918475 0.113884 0.91541
Zn Zn 0.394378 0.670256 0.114956 0.91541
Zn Zn 0.397888 0.918321 0.114126 0.91541
Zn Zn 0.0531794 0.49966 0.372808 1.11764
Zn Zn 0.0498037 0.749292 0.373913 1.11764
Zn Zn 0.302596 0.49974 0.370609 1.11764
Zn Zn 0.305771 0.754471 0.375885 1.11764
Zn Zn 0.196113 0.995932 0.124938 1.11764
Zn Zn 0.19907 0.750346 0.123247 1.11764
Zn Zn 0.449097 -0.0030879999999999797 0.12632 1.11764
Zn Zn 0.446895 0.747312 0.124538 1.11764
H_ H_ 0.247902 0.638745 0.230604 0.1146
H_ H_ 0.255705 0.891139 0.223712 0.1146
H_ H_ 0.491247 0.634552 0.233469 0.1146
H_ H_ 0.502647 0.889479 0.229512 0.1146
H_ H_ 0.185898 0.706523 0.196537 0.1146
H_ H_ 0.20498 0.96296 0.187657 0.1146
H_ H_ 0.441853 0.708195 0.195549 0.1146
H_ H_ 0.433638 0.953121 0.195547 0.1146
H_ H_ 0.228702 0.729357 0.263787 0.1146
H_ H_ 0.240175 0.982142 0.264565 0.1146
H_ H_ 0.469096 0.723551 0.269593 0.1146
H_ H_ 0.466445 0.970712 0.268903 0.1146
H_ H_ 0.182225 0.570923 0.0317639 0.42917
H_ H_ 0.242696 0.879862 0.0591622 0.42917
H_ H_ 0.435487 0.571269 0.0387679 0.42917
H_ H_ 0.43388 0.814493 0.0369981 0.42917
H_ H_ 0.154666 0.609438 0.0619179 0.1146
H_ H_ 0.167889 0.868178 0.0512475 0.1146
H_ H_ 0.397252 0.602267 0.0615811 0.1146
H_ H_ 0.39946 0.851064 0.0627902 0.1146
H_ H_ 0.102085 0.577298 0.105429 0.1146
H_ H_ 0.156473 0.811924 0.0155457 0.1146
H_ H_ 0.355116 0.58283 0.113759 0.1146
H_ H_ 0.344022 0.815719 0.0964805 0.1146
H_ H_ 0.099259 0.549214 0.0528119 0.1146
H_ H_ 0.17823 0.807281 0.0594415 0.1146
H_ H_ 0.351478 0.54866 0.0640073 0.1146
H_ H_ 0.355883 0.785902 0.0583174 0.1146
H_ H_ 0.122708 0.548665 0.0988821 0.1146
H_ H_ 0.133032 0.811836 0.0658425 0.1146
H_ H_ 0.375836 0.556803 0.116835 0.1146
H_ H_ 0.377635 0.799755 0.110434 0.1146
H_ H_ 0.0784022 0.724164 0.400552 0.42917
H_ H_ 0.0767711 0.973718 0.402522 0.42917
H_ H_ 0.329511 0.719844 0.390922 0.42917
H_ H_ 0.329901 0.974977 0.398146 0.42917
H_ H_ 0.108918 0.610685 0.0243831 0.1146
H_ H_ 0.110744 0.860443 0.0288104 0.1146
H_ H_ 0.355935 0.616616 0.021335 0.1146
H_ H_ 0.356913 0.858591 0.0208965 0.1146
H_ H_ 0.232652 0.533135 0.0544148 0.1146
H_ H_ 0.234142 0.785279 0.0580711 0.1146
H_ H_ 0.490422 0.533963 0.0651456 0.1146
H_ H_ 0.482448 0.787446 0.0495491 0.1146
H_ H_ 0.245631 0.522867 0.478804 0.1146
H_ H_ 0.247487 0.769784 0.479435 0.1146
H_ H_ 0.494055 0.524423 0.483117 0.1146
H_ H_ 0.492383 0.77 0.481887 0.1146
H_ H_ 0.118914 0.620943 0.179911 0.42917
H_ H_ 0.0965493 0.852951 0.181343 0.42917
H_ H_ 0.371214 0.638574 0.183264 0.42917
H_ H_ 0.368535 0.871807 0.191136 0.42917
H_ H_ 0.0514281 0.62744 0.197541 0.1146
H_ H_ 0.047059 0.878776 0.195765 0.1146
H_ H_ 0.290965 0.627302 0.193221 0.1146
H_ H_ 0.30419 0.874228 0.198185 0.1146
H_ H_ 0.115631 0.692538 0.189948 0.1146
H_ H_ 0.0883661 0.941771 0.192169 0.1146
H_ H_ 0.317985 0.683403 0.224587 0.1146
H_ H_ 0.326975 0.933824 0.230663 0.1146
H_ H_ 0.0674841 0.687769 0.199057 0.1146
H_ H_ 0.0984094 0.928709 0.237059 0.1146
H_ H_ 0.358231 0.697048 0.192395 0.1146
H_ H_ 0.364423 0.943732 0.197623 0.1146
H_ H_ 0.0967637 0.684222 0.237064 0.1146
H_ H_ 0.128893 0.927486 0.189932 0.1146
H_ H_ 0.305593 0.684381 0.173952 0.1146
H_ H_ 0.318081 0.933767 0.180549 0.1146
H_ H_ 0.115315 0.533366 0.373875 0.42917
H_ H_ 0.110232 0.781237 0.36164 0.42917
H_ H_ 0.361842 0.531427 0.354754 0.42917
H_ H_ 0.363312 0.782884 0.357114 0.42917
H_ H_ 0.997576 0.610485 0.272023 0.1146
H_ H_ 1.00586 0.863683 0.268819 0.1146
H_ H_ 0.241911 0.609412 0.277808 0.1146
H_ H_ 0.251342 0.861265 0.267566 0.1146
H_ H_ 0.0583566 0.540206 0.308144 0.1146
H_ H_ 0.0682386 0.79656 0.304592 0.1146
H_ H_ 0.294926 0.535569 0.312995 0.1146
H_ H_ 0.32252 0.797142 0.297935 0.1146
H_ H_ 0.0175423 0.518107 0.233549 0.1146
H_ H_ 0.0246514 0.772369 0.235413 0.1146
H_ H_ 0.270435 0.519103 0.238937 0.1146
H_ H_ 0.278137 0.772223 0.231138 0.1146
H_ H_ 0.0762757 0.685089 0.458603 0.42917
H_ H_ 0.0623597 0.933565 0.457554 0.42917
H_ H_ 0.301459 0.674259 0.450175 0.42917
H_ H_ 0.306081 0.920891 0.461638 0.42917
H_ H_ 0.109985 0.649719 0.430278 0.1146
H_ H_ 0.0997744 0.899957 0.439093 0.1146
H_ H_ 0.345035 0.64443 0.439891 0.1146
H_ H_ 0.352588 0.898414 0.442301 0.1146
H_ H_ 0.120674 0.691891 0.369492 0.1146
H_ H_ 0.154794 0.952656 0.435866 0.1146
H_ H_ 0.400274 0.673976 0.395197 0.1146
H_ H_ 0.368046 0.945375 0.385744 0.1146
H_ H_ 0.153067 0.676124 0.386201 0.1146
H_ H_ 0.129802 0.95094 0.386689 0.1146
H_ H_ 0.394423 0.703115 0.44272 0.1146
H_ H_ 0.398426 0.927951 0.402431 0.1146
H_ H_ 0.144774 0.705819 0.423582 0.1146
H_ H_ 0.143328 0.917847 0.382028 0.1146
H_ H_ 0.370097 0.693503 0.387261 0.1146
H_ H_ 0.39546 0.961668 0.44028 0.1146
H_ H_ 0.163886 0.524927 0.112528 0.42917
H_ H_ 0.166535 0.773958 0.103638 0.42917
H_ H_ 0.42303 0.528875 0.101161 0.42917
H_ H_ 0.428036 0.775396 0.0934197 0.42917
H_ H_ 0.14139 0.637094 0.477796 0.1146
H_ H_ 0.136277 0.88716 0.478538 0.1146
H_ H_ 0.391605 0.635465 0.479918 0.1146
H_ H_ 0.398438 0.884976 0.48311 0.1146
H_ H_ 0.0196917 0.71215 0.449099 0.1146
H_ H_ 0.0150426 0.96554 0.441116 0.1146
H_ H_ 0.26996 0.707452 0.43883 0.1146
H_ H_ 0.272215 0.957069 0.455741 0.1146
H_ H_ 1.00184009 0.732066 0.0203842 0.1146
H_ H_ 0.00623834 0.983933 0.0184905 0.1146
H_ H_ 0.252798 0.728315 0.0154922 0.1146
H_ H_ 0.248992 0.975732 0.0149174 0.1146
H_ H_ 0.117174 0.610971 0.289693 0.42917
H_ H_ 0.123763 0.851317 0.302474 0.42917
H_ H_ 0.37277 0.621583 0.303156 0.42917
H_ H_ 0.388722 0.885024 0.31293 0.42917
H_ H_ 0.190599 0.623122 0.297611 0.1146
H_ H_ 0.197497 0.868517 0.306803 0.1146
H_ H_ 0.44429 0.624904 0.30291 0.1146
H_ H_ 0.45151 0.877578 0.305178 0.1146
H_ H_ 0.172912 0.562908 0.313498 0.1146
H_ H_ 0.180152 0.802275 0.276176 0.1146
H_ H_ 0.414907 0.56076 0.312465 0.1146
H_ H_ 0.388951 0.810541 0.308465 0.1146
H_ H_ 0.151356 0.561965 0.266278 0.1146
H_ H_ 0.169015 0.802738 0.331165 0.1146
H_ H_ 0.41017 0.56983 0.262369 0.1146
H_ H_ 0.43904 0.820205 0.301529 0.1146
H_ H_ 0.122812 0.55533 0.307903 0.1146
H_ H_ 0.213196 0.825251 0.325056 0.1146
H_ H_ 0.369102 0.559434 0.295185 0.1146
H_ H_ 0.403623 0.819786 0.261331 0.1146
H_ H_ 0.143964 0.721073 0.140384 0.42917
H_ H_ 0.141575 0.970346 0.150609 0.42917
H_ H_ 0.385105 0.719316 0.129796 0.42917
H_ H_ 0.385921 0.963757 0.137575 0.42917
C_ C_ 0.240144 0.65632 0.222473 -0.12085
C_ C_ 0.237085 0.90427 0.220892 -0.12085
C_ C_ 0.484581 0.652303 0.224897 -0.12085
C_ C_ 0.491587 0.904437 0.221202 -0.12085
C_ C_ 0.0153921 0.699274 0.295571 0.6956
C_ C_ 0.0142619 0.948072 0.299254 0.6956
C_ C_ 0.259552 0.697102 0.298831 0.6956
C_ C_ 0.261632 0.945876 0.29759 0.6956
C_ C_ 0.242498 0.686369 0.252914 -0.16651
C_ C_ 0.240607 0.934532 0.254816 -0.16651
C_ C_ 0.488096 0.682936 0.257583 -0.16651
C_ C_ 0.494013 0.934915 0.253477 -0.16651
C_ C_ 0.202594 0.69356 0.201634 -0.12085
C_ C_ 0.205855 0.944656 0.201012 -0.12085
C_ C_ 0.458512 0.696332 0.204418 -0.12085
C_ C_ 0.452969 0.942424 0.201962 -0.12085
C_ C_ 0.216119 0.644663 0.181554 0.16698
C_ C_ 0.209441 0.891289 0.184348 0.16698
C_ C_ 0.470346 0.64587 0.182527 0.16698
C_ C_ 0.468725 0.893719 0.181108 0.16698
C_ C_ 0.182113 0.620148 0.120139 0.36401
C_ C_ 0.185361 0.87241 0.117392 0.36401
C_ C_ 0.43543 0.62193 0.120413 0.36401
C_ C_ 0.430366 0.86632 0.12284 0.36401
C_ C_ 0.200039 0.664538 0.172171 0.16698
C_ C_ 0.194328 0.912126 0.175598 0.16698
C_ C_ 0.455065 0.666232 0.173003 0.16698
C_ C_ 0.451342 0.912665 0.171039 0.16698
C_ C_ 0.224198 0.705579 0.241812 -0.12085
C_ C_ 0.229363 0.956946 0.240867 -0.12085
C_ C_ 0.472189 0.703384 0.245995 -0.12085
C_ C_ 0.470582 0.951628 0.242952 -0.12085
C_ C_ 0.15839 0.593267 0.0793035 0.15351
C_ C_ 0.184221 0.858684 0.0689593 0.15351
C_ C_ 0.40804 0.59147 0.0817517 0.15351
C_ C_ 0.407732 0.837555 0.0811398 0.15351
C_ C_ 0.118777 0.565637 0.0837056 -0.35079
C_ C_ 0.160517 0.819405 0.0507176 -0.35079
C_ C_ 0.37066 0.567783 0.0927781 -0.35079
C_ C_ 0.368684 0.808636 0.0879537 -0.35079
C_ C_ 0.0797771 0.594752 0.0274907 -0.12085
C_ C_ 0.0794102 0.845344 0.0284377 -0.12085
C_ C_ 0.329534 0.597593 0.0265648 -0.12085
C_ C_ 0.326667 0.844586 0.0251084 -0.12085
C_ C_ 0.064431 0.548666 0.448476 0.6956
C_ C_ 0.0598172 0.80512 0.445366 0.6956
C_ C_ 0.313327 0.553224 0.447627 0.6956
C_ C_ 0.313612 0.805698 0.447731 0.6956
C_ C_ 0.0539071 0.561343 0.492236 -0.16651
C_ C_ 0.0500572 0.817282 0.490524 -0.16651
C_ C_ 0.302695 0.564454 0.49205 -0.16651
C_ C_ 0.300309 0.817936 0.491177 -0.16651
C_ C_ 0.259277 0.552385 0.0469409 -0.12085
C_ C_ 0.254916 0.802849 0.0458103 -0.12085
C_ C_ 0.506416 0.553665 0.0498281 -0.12085
C_ C_ 0.507806 0.805789 0.0411172 -0.12085
C_ C_ 0.0652016 0.606999 0.0653654 0.16698
C_ C_ 0.0645568 0.857535 0.0658257 0.16698
C_ C_ 0.31446 0.60714 0.0668246 0.16698
C_ C_ 0.316503 0.855629 0.065623 0.16698
C_ C_ 0.063134 0.624597 0.132166 0.36401
C_ C_ 0.0605101 0.874179 0.131606 0.36401
C_ C_ 0.308573 0.624425 0.132173 0.36401
C_ C_ 0.314161 0.873256 0.133058 0.36401
C_ C_ 0.0309228 0.5858 0.0733231 0.16698
C_ C_ 0.0265416 0.837693 0.0721327 0.16698
C_ C_ 0.278478 0.584365 0.0735282 0.16698
C_ C_ 0.27973 0.835187 0.0741733 0.16698
C_ C_ 0.0179323 0.53964 0.503661 -0.12085
C_ C_ 0.0152861 0.795096 0.501808 -0.12085
C_ C_ 0.266192 0.545798 0.501387 -0.12085
C_ C_ 0.265917 0.795344 0.503063 -0.12085
C_ C_ 0.077874 0.63897 0.180736 0.15351
C_ C_ 0.0733887 0.885792 0.178018 0.15351
C_ C_ 0.319668 0.641242 0.179562 0.15351
C_ C_ 0.327822 0.887901 0.181094 0.15351
C_ C_ 0.0892839 0.677511 0.202638 -0.35079
C_ C_ 0.100696 0.92363 0.200534 -0.35079
C_ C_ 0.326519 0.67816 0.19226 -0.35079
C_ C_ 0.335738 0.925785 0.197501 -0.35079
C_ C_ 0.00659768 0.591412 0.278286 -0.12085
C_ C_ 0.0134428 0.84505 0.276711 -0.12085
C_ C_ 0.256551 0.594123 0.281991 -0.12085
C_ C_ 0.267819 0.846823 0.272574 -0.12085
C_ C_ 0.231877 0.550253 0.205147 0.6956
C_ C_ 0.240665 0.802944 0.197402 0.6956
C_ C_ 0.481824 0.551064 0.20377 0.6956
C_ C_ 0.485537 0.803628 0.203443 0.6956
C_ C_ 0.00169674 0.559872 0.247211 -0.16651
C_ C_ 0.0084709 0.814337 0.245756 -0.16651
C_ C_ 0.251959 0.562158 0.249671 -0.16651
C_ C_ 0.262137 0.814967 0.241506 -0.16651
C_ C_ 0.0408149 0.552128 0.299784 -0.12085
C_ C_ 0.0456226 0.805081 0.298217 -0.12085
C_ C_ 0.285129 0.55161 0.30314 -0.12085
C_ C_ 0.303186 0.808092 0.293406 -0.12085
C_ C_ 0.024109 0.600707 0.319836 0.16698
C_ C_ 0.0288804 0.852948 0.319623 0.16698
C_ C_ 0.273478 0.601545 0.323995 0.16698
C_ C_ 0.287377 0.857032 0.315759 0.16698
C_ C_ 0.0691808 0.629931 0.374891 0.36401
C_ C_ 0.0680572 0.882263 0.377756 0.36401
C_ C_ 0.313394 0.629277 0.380949 0.36401
C_ C_ 0.316908 0.880166 0.381393 0.36401
C_ C_ 0.0399567 0.581008 0.329946 0.16698
C_ C_ 0.0430634 0.832177 0.330606 0.16698
C_ C_ 0.287634 0.580496 0.333061 0.16698
C_ C_ 0.304006 0.837353 0.324597 0.16698
C_ C_ 0.020529 0.541073 0.257921 -0.12085
C_ C_ 0.026971 0.795162 0.256609 -0.12085
C_ C_ 0.267349 0.541143 0.262062 -0.12085
C_ C_ 0.280966 0.796425 0.253235 -0.12085
C_ C_ 0.0971062 0.659639 0.41043 0.15351
C_ C_ 0.0939525 0.911979 0.415926 0.15351
C_ C_ 0.340134 0.657754 0.417872 0.15351
C_ C_ 0.341961 0.908795 0.420868 0.15351
C_ C_ 0.13013 0.685192 0.394526 -0.35079
C_ C_ 0.133735 0.935152 0.403702 -0.35079
C_ C_ 0.378586 0.683074 0.409548 -0.35079
C_ C_ 0.377441 0.938327 0.41255 -0.35079
C_ C_ 0.171219 0.652193 0.471513 -0.12085
C_ C_ 0.166393 0.900414 0.474054 -0.12085
C_ C_ 0.422819 0.647704 0.475323 -0.12085
C_ C_ 0.424748 0.902736 0.477046 -0.12085
C_ C_ 0.187866 0.693878 0.052096 0.6956
C_ C_ 0.185356 0.941514 0.0485391 0.6956
C_ C_ 0.435928 0.693579 0.0529396 0.6956
C_ C_ 0.43253 0.941623 0.0508124 0.6956
C_ C_ 0.200406 0.681506 0.00886208 -0.16651
C_ C_ 0.194675 0.930393 0.00293994 -0.16651
C_ C_ 0.445069 0.682942 0.00802691 -0.16651
C_ C_ 0.44361 0.931363 0.00580887 -0.16651
C_ C_ 0.996212 0.692882 0.458097 -0.12085
C_ C_ 0.990192 0.947963 0.451653 -0.12085
C_ C_ 0.2411 0.693726 0.44843 -0.12085
C_ C_ 0.244043 0.93967 0.459838 -0.12085
C_ C_ 0.181139 0.640013 0.431094 0.16698
C_ C_ 0.17999 0.890063 0.435202 0.16698
C_ C_ 0.435207 0.638553 0.434281 0.16698
C_ C_ 0.43808 0.89275 0.436882 0.16698
C_ C_ 0.181695 0.624756 0.364733 0.36401
C_ C_ 0.186078 0.872928 0.36868 0.36401
C_ C_ 0.435589 0.6251 0.367153 0.36401
C_ C_ 0.439381 0.877534 0.369955 0.36401
C_ C_ 0.217071 0.660546 0.421247 0.16698
C_ C_ 0.217981 0.910082 0.428212 0.16698
C_ C_ 0.471811 0.658263 0.426414 0.16698
C_ C_ 0.473148 0.915004 0.428433 0.16698
C_ C_ 0.234429 0.702776 0.995469 -0.12085
C_ C_ 0.229 0.951195 0.990801 -0.12085
C_ C_ 0.479576 0.705621 0.996604 -0.12085
C_ C_ 0.481524 0.951734 0.997344 -0.12085
C_ C_ 0.166154 0.610392 0.316586 0.15351
C_ C_ 0.175594 0.851349 0.321447 0.15351
C_ C_ 0.421186 0.613106 0.320851 0.15351
C_ C_ 0.426781 0.863768 0.32033 0.15351
C_ C_ 0.1518 0.571161 0.299539 -0.35079
C_ C_ 0.182537 0.818229 0.310313 -0.35079
C_ C_ 0.402649 0.574537 0.296495 -0.35079
C_ C_ 0.415127 0.826502 0.295816 -0.35079
N_ N_ 0.204115 0.614043 0.149844 -0.51457
N_ N_ 0.203365 0.864931 0.147491 -0.51457
N_ N_ 0.45624 0.615884 0.148639 -0.51457
N_ N_ 0.455583 0.86274 0.14925 -0.51457
N_ N_ 0.175843 0.648578 0.134334 -0.51457
N_ N_ 0.17847 0.900715 0.133746 -0.51457
N_ N_ 0.431625 0.651993 0.134527 -0.51457
N_ N_ 0.428313 0.896981 0.135111 -0.51457
N_ N_ 0.087149 0.633041 0.101862 -0.51457
N_ N_ 0.0868174 0.882664 0.103208 -0.51457
N_ N_ 0.335819 0.633266 0.103667 -0.51457
N_ N_ 0.340438 0.879282 0.1025 -0.51457
N_ N_ 0.0266775 0.595687 0.115424 -0.51457
N_ N_ 0.0249943 0.846086 0.114756 -0.51457
N_ N_ 0.274016 0.594451 0.114723 -0.51457
N_ N_ 0.276489 0.846253 0.115296 -0.51457
N_ N_ 0.0430114 0.634179 0.348047 -0.51457
N_ N_ 0.0447221 0.8856 0.349722 -0.51457
N_ N_ 0.28728 0.63208 0.355249 -0.51457
N_ N_ 0.296175 0.885861 0.352128 -0.51457
N_ N_ 0.066769 0.596914 0.365244 -0.51457
N_ N_ 0.0699456 0.850583 0.36641 -0.51457
N_ N_ 0.317406 0.599151 0.36733 -0.51457
N_ N_ 0.323325 0.850545 0.365166 -0.51457
N_ N_ 0.158434 0.614898 0.394803 -0.51457
N_ N_ 0.158117 0.865159 0.397185 -0.51457
N_ N_ 0.410332 0.616422 0.396476 -0.51457
N_ N_ 0.414873 0.867548 0.400178 -0.51457
N_ N_ 0.216365 0.65402 0.379182 -0.51457
N_ N_ 0.221287 0.900513 0.385813 -0.51457
N_ N_ 0.472755 0.649875 0.38496 -0.51457
N_ N_ 0.474413 0.905991 0.387365 -0.51457
O_ O_ 0.0241116 0.730965 0.322277 -0.61362
O_ O_ 0.0250485 0.98002 0.324833 -0.61362
O_ O_ 0.27867 0.729925 0.323108 -0.61362
O_ O_ 0.276886 0.97868 0.324138 -0.61362
O_ O_ 0.0574195 0.717256 0.381814 -0.98607
O_ O_ 0.0555725 0.968516 0.385783 -0.98607
O_ O_ 0.305932 0.717096 0.382078 -0.98607
O_ O_ 0.308209 0.967996 0.383195 -0.98607
O_ O_ 0.0163446 0.675923 0.309194 -0.61362
O_ O_ 0.0191604 0.925085 0.311264 -0.61362
O_ O_ 0.263106 0.673462 0.310958 -0.61362
O_ O_ 0.266392 0.923139 0.3092 -0.61362
O_ O_ 0.17928 0.579643 0.0582984 -0.55956
O_ O_ 0.218423 0.865048 0.056283 -0.55956
O_ O_ 0.426643 0.574317 0.0619264 -0.55956
O_ O_ 0.428265 0.824028 0.0615881 -0.55956
O_ O_ 0.0403166 0.519407 0.42137 -0.61362
O_ O_ 0.0352662 0.774559 0.416762 -0.61362
O_ O_ 0.293043 0.521386 0.420074 -0.61362
O_ O_ 0.291538 0.77458 0.42266 -0.61362
O_ O_ 0.095242 0.537439 0.375135 -0.98607
O_ O_ 0.0914084 0.786497 0.37294 -0.98607
O_ O_ 0.343997 0.536265 0.366772 -0.98607
O_ O_ 0.34617 0.78902 0.369671 -0.98607
O_ O_ 0.0927764 0.57231 0.43636 -0.61362
O_ O_ 0.0944417 0.824866 0.437296 -0.61362
O_ O_ 0.335625 0.578204 0.433804 -0.61362
O_ O_ 0.345524 0.82671 0.435708 -0.61362
O_ O_ 0.105682 0.632188 0.189484 -0.55956
O_ O_ 0.0935019 0.870597 0.1841 -0.55956
O_ O_ 0.349506 0.638538 0.192817 -0.55956
O_ O_ 0.358686 0.885722 0.191005 -0.55956
O_ O_ 0.220266 0.518422 0.181602 -0.61362
O_ O_ 0.227438 0.770402 0.174127 -0.61362
O_ O_ 0.472373 0.519152 0.176622 -0.61362
O_ O_ 0.474424 0.770737 0.178167 -0.61362
O_ O_ 0.188362 0.530045 0.120472 -0.98607
O_ O_ 0.190194 0.780935 0.118301 -0.98607
O_ O_ 0.444834 0.534204 0.116788 -0.98607
O_ O_ 0.442338 0.781289 0.117698 -0.98607
O_ O_ 0.222508 0.571574 0.19195 -0.61362
O_ O_ 0.236653 0.82517 0.18308 -0.61362
O_ O_ 0.473853 0.573785 0.192999 -0.61362
O_ O_ 0.486267 0.826502 0.186701 -0.61362
O_ O_ 0.0795282 0.676449 0.432626 -0.55956
O_ O_ 0.0744476 0.928156 0.437566 -0.55956
O_ O_ 0.321434 0.675359 0.43737 -0.55956
O_ O_ 0.320274 0.921314 0.441176 -0.55956
O_ O_ 0.211228 0.723687 0.0793405 -0.61362
O_ O_ 0.208238 0.973114 0.0753282 -0.61362
O_ O_ 0.45796 0.723144 0.0795777 -0.61362
O_ O_ 0.45817 0.970238 0.0793825 -0.61362
O_ O_ 0.160656 0.714712 0.129104 -0.98607
O_ O_ 0.157097 0.965051 0.136432 -0.98607
O_ O_ 0.40434 0.714189 0.12452 -0.98607
O_ O_ 0.407974 0.962161 0.131041 -0.98607
O_ O_ 0.151773 0.676133 0.0600594 -0.61362
O_ O_ 0.151973 0.924061 0.0613816 -0.61362
O_ O_ 0.405909 0.670875 0.0643507 -0.61362
O_ O_ 0.4053 0.918789 0.0632248 -0.61362
O_ O_ 0.137942 0.616871 0.307045 -0.55956
O_ O_ 0.140733 0.843108 0.305388 -0.55956
O_ O_ 0.394401 0.62298 0.315551 -0.55956
O_ O_ 0.396862 0.869212 0.312584 -0.55956
Zn Zn 0.0248601 0.673286 0.863307 0.91541
Zn Zn 0.0261789 0.924504 0.863108 0.91541
Zn Zn 0.272916 0.672964 0.862756 0.91541
Zn Zn 0.269627 0.918875 0.86012 0.91541
Zn Zn 0.102673 0.579349 0.884575 0.91541
Zn Zn 0.0999341 0.830175 0.884683 0.91541
Zn Zn 0.351109 0.5795 0.884613 0.91541
Zn Zn 0.351712 0.828561 0.886177 0.91541
Zn Zn 0.22895 0.577085 0.635389 0.91541
Zn Zn 0.222552 0.825192 0.633295 0.91541
Zn Zn 0.47741 0.573998 0.636074 0.91541
Zn Zn 0.473619 0.826405 0.633013 0.91541
Zn Zn 0.148204 0.666799 0.608925 0.91541
Zn Zn 0.142243 0.918534 0.612191 0.91541
Zn Zn 0.396808 0.667896 0.613356 0.91541
Zn Zn 0.394231 0.918989 0.614461 0.91541
Zn Zn 0.0513873 0.499366 0.872458 1.11764
Zn Zn 0.0544947 0.753455 0.873505 1.11764
Zn Zn 0.301102 0.502114 0.877674 1.11764
Zn Zn 0.3037 0.750768 0.873287 1.11764
Zn Zn 0.191759 0.996208 0.625556 1.11764
Zn Zn 0.194333 0.747093 0.619286 1.11764
Zn Zn 0.445414 0.999836 0.626298 1.11764
Zn Zn 0.446631 0.748069 0.625959 1.11764
H_ H_ 0.249423 0.636423 0.731289 0.1146
H_ H_ 0.250228 0.888127 0.723682 0.1146
H_ H_ 0.496251 0.633912 0.72792 0.1146
H_ H_ 0.509247 0.895126 0.728672 0.1146
H_ H_ 0.190817 0.706825 0.687094 0.1146
H_ H_ 0.199822 0.962952 0.683627 0.1146
H_ H_ 0.445091 0.706294 0.688148 0.1146
H_ H_ 0.444704 0.964979 0.697676 0.1146
H_ H_ 0.223121 0.724667 0.763167 0.1146
H_ H_ 0.230838 0.979704 0.75843 0.1146
H_ H_ 0.487153 0.728887 0.760849 0.1146
H_ H_ 0.473267 0.97894 0.769684 0.1146
H_ H_ 0.195801 0.576274 0.526066 0.42917
H_ H_ 0.173169 0.807663 0.538405 0.42917
H_ H_ 0.434009 0.562757 0.535662 0.42917
H_ H_ 0.43739 0.822754 0.536373 0.42917
H_ H_ 0.157789 0.606682 0.552006 0.1146
H_ H_ 0.137478 0.847076 0.562132 0.1146
H_ H_ 0.402509 0.601635 0.556777 0.1146
H_ H_ 0.399488 0.85562 0.560582 0.1146
H_ H_ 0.135816 0.546518 0.592581 0.1146
H_ H_ 0.129005 0.806546 0.62468 0.1146
H_ H_ 0.346042 0.549415 0.562314 0.1146
H_ H_ 0.373312 0.796315 0.599822 0.1146
H_ H_ 0.108063 0.570034 0.589264 0.1146
H_ H_ 0.0907019 0.812651 0.600983 0.1146
H_ H_ 0.372962 0.54993 0.608425 0.1146
H_ H_ 0.350086 0.825702 0.608965 0.1146
H_ H_ 0.113844 0.539367 0.544205 0.1146
H_ H_ 0.108202 0.779722 0.575317 0.1146
H_ H_ 0.351792 0.580683 0.610172 0.1146
H_ H_ 0.350141 0.798416 0.556751 0.1146
H_ H_ 0.0820153 0.723913 0.889278 0.42917
H_ H_ 0.0833609 0.974101 0.890859 0.42917
H_ H_ 0.328378 0.720358 0.899969 0.42917
H_ H_ 0.320609 0.965434 0.896389 0.42917
H_ H_ 0.10734 0.607561 0.514651 0.1146
H_ H_ 0.106615 0.862296 0.522352 0.1146
H_ H_ 0.35798 0.608054 0.518101 0.1146
H_ H_ 0.357437 0.864873 0.520823 0.1146
H_ H_ 0.228438 0.538292 0.552124 0.1146
H_ H_ 0.22503 0.790837 0.550629 0.1146
H_ H_ 0.481684 0.535766 0.556611 0.1146
H_ H_ 0.480226 0.788765 0.552542 0.1146
H_ H_ 0.24898 0.519301 0.981085 0.1146
H_ H_ 0.241069 0.774863 0.976602 0.1146
H_ H_ 0.501661 0.516084 0.987533 0.1146
H_ H_ 0.503651 0.773062 0.978203 0.1146
H_ H_ 0.126826 0.650613 0.70294 0.42917
H_ H_ 0.130923 0.88781 0.695201 0.42917
H_ H_ 0.382811 0.644782 0.704856 0.42917
H_ H_ 0.373471 0.879766 0.682067 0.42917
H_ H_ 0.0550666 0.630388 0.694103 0.1146
H_ H_ 0.0506219 0.869391 0.69184 0.1146
H_ H_ 0.310715 0.629621 0.695661 0.1146
H_ H_ 0.29676 0.87475 0.691151 0.1146
H_ H_ 0.0457418 0.681314 0.680671 0.1146
H_ H_ 0.0899704 0.931936 0.72591 0.1146
H_ H_ 0.326103 0.686481 0.724484 0.1146
H_ H_ 0.335988 0.938182 0.730961 0.1146
H_ H_ 0.0729674 0.690631 0.728842 0.1146
H_ H_ 0.119652 0.933276 0.686014 0.1146
H_ H_ 0.359199 0.700765 0.690477 0.1146
H_ H_ 0.367131 0.939314 0.689794 0.1146
H_ H_ 0.100356 0.703565 0.689528 0.1146
H_ H_ 0.0725336 0.931538 0.676076 0.1146
H_ H_ 0.304777 0.678171 0.671437 0.1146
H_ H_ 0.315725 0.928752 0.677685 0.1146
H_ H_ 0.107315 0.527385 0.854321 0.42917
H_ H_ 0.11783 0.789294 0.861221 0.42917
H_ H_ 0.362692 0.533012 0.866597 0.42917
H_ H_ 0.355645 0.778804 0.851511 0.42917
H_ H_ 0.998178 0.611069 0.772687 0.1146
H_ H_ -0.003010999999999986 0.858531 0.76485 0.1146
H_ H_ 0.247863 0.610445 0.772747 0.1146
H_ H_ 0.253841 0.86124 0.767214 0.1146
H_ H_ 0.0451043 0.532844 0.809026 0.1146
H_ H_ 0.0509451 0.787572 0.811738 0.1146
H_ H_ 0.300685 0.534864 0.810306 0.1146
H_ H_ 0.296783 0.783042 0.806582 0.1146
H_ H_ 0.0229661 0.519917 0.736017 0.1146
H_ H_ 0.0210773 0.769772 0.73353 0.1146
H_ H_ 0.276781 0.522561 0.736686 0.1146
H_ H_ 0.268969 0.768491 0.730847 0.1146
H_ H_ 0.0883482 0.695447 0.956867 0.42917
H_ H_ 0.0575243 0.933982 0.957784 0.42917
H_ H_ 0.306255 0.678596 0.962879 0.42917
H_ H_ 0.307826 0.929621 0.9548 0.42917
H_ H_ 0.103804 0.646192 0.933064 0.1146
H_ H_ 0.0917872 0.89748 0.941516 0.1146
H_ H_ 0.342809 0.645459 0.948277 0.1146
H_ H_ 0.344982 0.895395 0.937319 0.1146
H_ H_ 0.140751 0.657247 0.866913 0.1146
H_ H_ 0.151635 0.924448 0.900858 0.1146
H_ H_ 0.40372 0.69944 0.951845 0.1146
H_ H_ 0.370971 0.951721 0.895895 0.1146
H_ H_ 0.161922 0.691843 0.914836 0.1146
H_ H_ 0.142478 0.951482 0.947412 0.1146
H_ H_ 0.378093 0.708371 0.913954 0.1146
H_ H_ 0.395047 0.92555 0.896259 0.1146
H_ H_ 0.130152 0.693673 0.872391 0.1146
H_ H_ 0.12654 0.951604 0.89274 0.1146
H_ H_ 0.394006 0.67623 0.896503 0.1146
H_ H_ 0.393603 0.955103 0.94526 0.1146
H_ H_ 0.173852 0.528086 0.61429 0.42917
H_ H_ 0.166143 0.772756 0.596345 0.42917
H_ H_ 0.42012 0.525992 0.60426 0.42917
H_ H_ 0.423046 0.77265 0.594986 0.42917
H_ H_ 0.144001 0.634455 0.98282 0.1146
H_ H_ 0.138632 0.885291 0.976787 0.1146
H_ H_ 0.40018 0.628794 0.984714 0.1146
H_ H_ 0.389678 0.885964 0.979567 0.1146
H_ H_ 0.0190541 0.715398 0.941914 0.1146
H_ H_ 0.0184965 0.965613 0.941286 0.1146
H_ H_ 0.264401 0.712804 0.941814 0.1146
H_ H_ 0.265382 0.958171 0.941163 0.1146
H_ H_ 1.00963527 0.718859 0.52529 0.1146
H_ H_ 1.00127061 0.98172 0.517082 0.1146
H_ H_ 0.255915 0.726734 0.511898 0.1146
H_ H_ 0.251247 0.973428 0.524694 0.1146
H_ H_ 0.125457 0.603611 0.80254 0.42917
H_ H_ 0.124666 0.86954 0.795204 0.42917
H_ H_ 0.373077 0.623196 0.813461 0.42917
H_ H_ 0.387876 0.869096 0.785335 0.42917
H_ H_ 0.197191 0.619041 0.804036 0.1146
H_ H_ 0.193016 0.870216 0.800121 0.1146
H_ H_ 0.442139 0.622536 0.807376 0.1146
H_ H_ 0.449691 0.870702 0.805773 0.1146
H_ H_ 0.183518 0.555982 0.781102 0.1146
H_ H_ 0.156471 0.810327 0.760221 0.1146
H_ H_ 0.423172 0.563853 0.827194 0.1146
H_ H_ 0.434555 0.814122 0.817867 0.1146
H_ H_ 0.163414 0.551873 0.829109 0.1146
H_ H_ 0.125234 0.805161 0.804495 0.1146
H_ H_ 0.41248 0.561335 0.772902 0.1146
H_ H_ 0.409168 0.811118 0.767257 0.1146
H_ H_ 0.211295 0.578149 0.831631 0.1146
H_ H_ 0.177317 0.81109 0.810392 0.1146
H_ H_ 0.374612 0.54843 0.806655 0.1146
H_ H_ 0.383793 0.80701 0.807292 0.1146
H_ H_ 0.138856 0.714943 0.636725 0.42917
H_ H_ 0.13141 0.966251 0.637685 0.42917
H_ H_ 0.383818 0.711644 0.626259 0.42917
H_ H_ 0.386649 0.970867 0.638487 0.42917
C_ C_ 0.237065 0.652091 0.721732 -0.12085
C_ C_ 0.238374 0.903033 0.717711 -0.12085
C_ C_ 0.48825 0.651261 0.719494 -0.12085
C_ C_ 0.493124 0.908997 0.7218 -0.12085
C_ C_ 0.0133728 0.694106 0.798839 0.6956
C_ C_ 0.012501 0.944261 0.796794 0.6956
C_ C_ 0.258728 0.69263 0.799407 0.6956
C_ C_ 0.260968 0.945637 0.793266 0.6956
C_ C_ 0.239865 0.682971 0.753791 -0.16651
C_ C_ 0.245836 0.935629 0.747241 -0.16651
C_ C_ 0.491763 0.682072 0.751706 -0.16651
C_ C_ 0.494607 0.93954 0.753868 -0.16651
C_ C_ 0.206973 0.692636 0.696894 -0.12085
C_ C_ 0.213417 0.948323 0.693078 -0.12085
C_ C_ 0.461484 0.694041 0.697168 -0.12085
C_ C_ 0.457755 0.948996 0.702789 -0.12085
C_ C_ 0.222856 0.645199 0.677181 0.16698
C_ C_ 0.219951 0.8948 0.676065 0.16698
C_ C_ 0.477848 0.645434 0.675521 0.16698
C_ C_ 0.471653 0.898758 0.68004 0.16698
C_ C_ 0.184956 0.618434 0.616841 0.36401
C_ C_ 0.179896 0.866679 0.618796 0.36401
C_ C_ 0.433668 0.616648 0.619162 0.36401
C_ C_ 0.431881 0.870709 0.620846 0.36401
C_ C_ 0.210097 0.666765 0.666199 0.16698
C_ C_ 0.208073 0.91664 0.66466 0.16698
C_ C_ 0.462487 0.666135 0.665226 0.16698
C_ C_ 0.454513 0.918429 0.671749 0.16698
C_ C_ 0.225171 0.703052 0.7401 -0.12085
C_ C_ 0.231738 0.95767 0.735742 -0.12085
C_ C_ 0.480847 0.704442 0.739185 -0.12085
C_ C_ 0.474735 0.957902 0.744877 -0.12085
C_ C_ 0.165879 0.591904 0.571731 0.15351
C_ C_ 0.151393 0.835556 0.582194 0.15351
C_ C_ 0.40789 0.588585 0.578283 0.15351
C_ C_ 0.407369 0.842184 0.579253 0.15351
C_ C_ 0.129618 0.560062 0.57403 -0.35079
C_ C_ 0.116988 0.807657 0.596215 -0.35079
C_ C_ 0.368348 0.566567 0.59187 -0.35079
C_ C_ 0.368094 0.814281 0.586933 -0.35079
C_ C_ 0.0792817 0.593088 0.523565 -0.12085
C_ C_ 0.075166 0.848062 0.52336 -0.12085
C_ C_ 0.328313 0.59553 0.523748 -0.12085
C_ C_ 0.324972 0.850006 0.524428 -0.12085
C_ C_ 0.0664268 0.553081 0.949542 0.6956
C_ C_ 0.0627548 0.80705 0.947685 0.6956
C_ C_ 0.313334 0.552913 0.949563 0.6956
C_ C_ 0.310744 0.803626 0.946907 0.6956
C_ C_ 0.0545623 0.564722 0.993952 -0.16651
C_ C_ 0.0510741 0.816389 0.992373 -0.16651
C_ C_ 0.304416 0.565084 0.994378 -0.16651
C_ C_ 0.297651 0.816421 0.991164 -0.16651
C_ C_ 0.254933 0.556091 0.542398 -0.12085
C_ C_ 0.250076 0.807483 0.54038 -0.12085
C_ C_ 0.50735 0.554676 0.5476 -0.12085
C_ C_ 0.503074 0.806449 0.54296 -0.12085
C_ C_ 0.0673859 0.603613 0.563772 0.16698
C_ C_ 0.0614016 0.857868 0.562438 0.16698
C_ C_ 0.314918 0.608042 0.563868 0.16698
C_ C_ 0.311949 0.858465 0.562766 0.16698
C_ C_ 0.0642599 0.62565 0.629358 0.36401
C_ C_ 0.0611555 0.869028 0.629137 0.36401
C_ C_ 0.31516 0.624698 0.631293 0.36401
C_ C_ 0.311483 0.86894 0.629498 0.36401
C_ C_ 0.0331294 0.582104 0.57375 0.16698
C_ C_ 0.0247621 0.837977 0.569427 0.16698
C_ C_ 0.280216 0.586436 0.573253 0.16698
C_ C_ 0.274937 0.838276 0.570839 0.16698
C_ C_ 0.0170507 0.545651 1.00343625 -0.12085
C_ C_ 0.0129785 0.796222 -0.000601891 -0.12085
C_ C_ 0.269357 0.542786 0.00592105 -0.12085
C_ C_ 0.260585 0.795598 0.00174426 -0.12085
C_ C_ 0.0747843 0.648103 0.677152 0.15351
C_ C_ 0.0766146 0.884698 0.67793 0.15351
C_ C_ 0.331093 0.644361 0.67754 0.15351
C_ C_ 0.323924 0.886984 0.677473 0.15351
C_ C_ 0.0719046 0.681563 0.693558 -0.35079
C_ C_ 0.0910199 0.922832 0.692241 -0.35079
C_ C_ 0.330964 0.680048 0.691286 -0.35079
C_ C_ 0.337202 0.925561 0.694679 -0.35079
C_ C_ 0.0102193 0.594073 0.779527 -0.12085
C_ C_ 0.00721465 0.842521 0.775756 -0.12085
C_ C_ 0.265231 0.597741 0.777259 -0.12085
C_ C_ 0.260018 0.842243 0.775805 -0.12085
C_ C_ 0.241818 0.552957 0.702088 0.6956
C_ C_ 0.231001 0.798039 0.698029 0.6956
C_ C_ 0.4864 0.550146 0.703986 0.6956
C_ C_ 0.484728 0.801408 0.699831 0.6956
C_ C_ 0.00659958 0.563018 0.746672 -0.16651
C_ C_ 0.00777266 0.812735 0.745583 -0.16651
C_ C_ 0.26094 0.56549 0.748063 -0.16651
C_ C_ 0.254261 0.811255 0.74311 -0.16651
C_ C_ 0.0376632 0.550339 0.800918 -0.12085
C_ C_ 0.0394025 0.802146 0.799158 -0.12085
C_ C_ 0.295789 0.555043 0.801609 -0.12085
C_ C_ 0.288609 0.800401 0.797235 -0.12085
C_ C_ 0.0224436 0.600615 0.823101 0.16698
C_ C_ 0.0280344 0.853493 0.817143 0.16698
C_ C_ 0.284985 0.60745 0.820328 0.16698
C_ C_ 0.274572 0.850566 0.817506 0.16698
C_ C_ 0.0668689 0.62971 0.877521 0.36401
C_ C_ 0.0668945 0.882124 0.876989 0.36401
C_ C_ 0.320001 0.632988 0.881922 0.36401
C_ C_ 0.317002 0.879945 0.874954 0.36401
C_ C_ 0.0398564 0.580787 0.830304 0.16698
C_ C_ 0.0437609 0.83253 0.82677 0.16698
C_ C_ 0.298782 0.585908 0.829737 0.16698
C_ C_ 0.292328 0.831062 0.827276 0.16698
C_ C_ 0.0227076 0.542028 0.758173 -0.12085
C_ C_ 0.022695 0.792197 0.757232 -0.12085
C_ C_ 0.277364 0.545822 0.759287 -0.12085
C_ C_ 0.269265 0.790623 0.755025 -0.12085
C_ C_ 0.0993964 0.659742 0.910262 0.15351
C_ C_ 0.0886326 0.910297 0.919729 0.15351
C_ C_ 0.340795 0.658988 0.926294 0.15351
C_ C_ 0.339618 0.909811 0.917108 0.15351
C_ C_ 0.1347 0.677273 0.889023 -0.35079
C_ C_ 0.129587 0.935905 0.914531 -0.35079
C_ C_ 0.381306 0.688009 0.922352 -0.35079
C_ C_ 0.377361 0.937031 0.913707 -0.35079
C_ C_ 0.173897 0.649734 0.97518 -0.12085
C_ C_ 0.168438 0.898012 0.970589 -0.12085
C_ C_ 0.421734 0.64908 0.977587 -0.12085
C_ C_ 0.417661 0.899877 0.973093 -0.12085
C_ C_ 0.187681 0.692083 0.547663 0.6956
C_ C_ 0.182054 0.942566 0.5527 0.6956
C_ C_ 0.43485 0.690187 0.551434 0.6956
C_ C_ 0.438966 0.944368 0.554168 0.6956
C_ C_ 0.19861 0.682681 0.503452 -0.16651
C_ C_ 0.191405 0.932059 0.506298 -0.16651
C_ C_ 0.449488 0.67728 0.509325 -0.16651
C_ C_ 0.450622 0.933194 0.50957 -0.16651
C_ C_ 0.994047 0.698201 0.954654 -0.12085
C_ C_ 0.992286 0.949301 0.953683 -0.12085
C_ C_ 0.244845 0.692049 0.953715 -0.12085
C_ C_ 0.239512 0.940508 0.950602 -0.12085
C_ C_ 0.187027 0.638001 0.935281 0.16698
C_ C_ 0.181191 0.885544 0.930798 0.16698
C_ C_ 0.432164 0.640303 0.936546 0.16698
C_ C_ 0.4308 0.891078 0.934026 0.16698
C_ C_ 0.187318 0.623692 0.867408 0.36401
C_ C_ 0.184292 0.872143 0.864582 0.36401
C_ C_ 0.432367 0.62434 0.870667 0.36401
C_ C_ 0.433835 0.875412 0.867089 0.36401
C_ C_ 0.221578 0.660114 0.925999 0.16698
C_ C_ 0.219449 0.907053 0.922699 0.16698
C_ C_ 0.467787 0.661003 0.927872 0.16698
C_ C_ 0.466998 0.912054 0.925664 0.16698
C_ C_ 0.234948 0.702885 0.491888 -0.12085
C_ C_ 0.230213 0.949869 0.498731 -0.12085
C_ C_ 0.484646 0.701263 0.497988 -0.12085
C_ C_ 0.487116 0.956114 0.500507 -0.12085
C_ C_ 0.177169 0.602765 0.821741 0.15351
C_ C_ 0.167644 0.856523 0.815697 0.15351
C_ C_ 0.417037 0.607666 0.822659 0.15351
C_ C_ 0.423595 0.858029 0.818957 0.15351
C_ C_ 0.184521 0.570059 0.815733 -0.35079
C_ C_ 0.156115 0.81924 0.796402 -0.35079
C_ C_ 0.405475 0.569381 0.805481 -0.35079
C_ C_ 0.414851 0.82129 0.803361 -0.35079
N_ N_ 0.208015 0.613974 0.645397 -0.51457
N_ N_ 0.205135 0.862359 0.644199 -0.51457
N_ N_ 0.459705 0.612562 0.646072 -0.51457
N_ N_ 0.4577 0.868308 0.648195 -0.51457
N_ N_ 0.183546 0.649327 0.629969 -0.51457
N_ N_ 0.178096 0.898174 0.631272 -0.51457
N_ N_ 0.434698 0.649043 0.629657 -0.51457
N_ N_ 0.429835 0.901992 0.63426 -0.51457
N_ N_ 0.0891442 0.634287 0.599083 -0.51457
N_ N_ 0.0851738 0.877961 0.600024 -0.51457
N_ N_ 0.337669 0.63318 0.599562 -0.51457
N_ N_ 0.335345 0.877944 0.600038 -0.51457
N_ N_ 0.0306681 0.593028 0.614625 -0.51457
N_ N_ 0.0245624 0.843709 0.610676 -0.51457
N_ N_ 0.280026 0.595954 0.616107 -0.51457
N_ N_ 0.27492 0.843273 0.613059 -0.51457
N_ N_ 0.0414312 0.633464 0.851838 -0.51457
N_ N_ 0.0422787 0.884639 0.848328 -0.51457
N_ N_ 0.295916 0.637034 0.853459 -0.51457
N_ N_ 0.290958 0.882919 0.847217 -0.51457
N_ N_ 0.0675743 0.597632 0.865919 -0.51457
N_ N_ 0.0672221 0.849936 0.865067 -0.51457
N_ N_ 0.319708 0.601368 0.868913 -0.51457
N_ N_ 0.320009 0.848829 0.862973 -0.51457
N_ N_ 0.162953 0.614366 0.898116 -0.51457
N_ N_ 0.158572 0.865039 0.893471 -0.51457
N_ N_ 0.40811 0.616025 0.900841 -0.51457
N_ N_ 0.408134 0.866853 0.896823 -0.51457
N_ N_ 0.224255 0.650761 0.884058 -0.51457
N_ N_ 0.220358 0.896994 0.881341 -0.51457
N_ N_ 0.469321 0.650829 0.885213 -0.51457
N_ N_ 0.467793 0.904223 0.883015 -0.51457
O_ O_ 0.0185142 0.724997 0.82654 -0.61362
O_ O_ 0.0212187 0.976368 0.823694 -0.61362
O_ O_ 0.265686 0.72196 0.824839 -0.61362
O_ O_ 0.275651 0.977586 0.817879 -0.61362
O_ O_ 0.0594724 0.718862 0.877644 -0.98607
O_ O_ 0.060389 0.968133 0.878319 -0.98607
O_ O_ 0.307863 0.71574 0.883657 -0.98607
O_ O_ 0.301486 0.962702 0.880768 -0.98607
O_ O_ 0.0207736 0.67251 0.812497 -0.61362
O_ O_ 0.0233353 0.922993 0.809305 -0.61362
O_ O_ 0.273179 0.673737 0.809578 -0.61362
O_ O_ 0.257264 0.921347 0.80943 -0.61362
O_ O_ 0.188316 0.579926 0.550469 -0.55956
O_ O_ 0.171888 0.821134 0.562491 -0.55956
O_ O_ 0.424446 0.569514 0.558203 -0.55956
O_ O_ 0.427573 0.827131 0.558189 -0.55956
O_ O_ 0.0453594 0.520841 0.923638 -0.61362
O_ O_ 0.044249 0.776198 0.922412 -0.61362
O_ O_ 0.28889 0.52448 0.923468 -0.61362
O_ O_ 0.290718 0.771454 0.924118 -0.61362
O_ O_ 0.0907701 0.534631 0.867438 -0.98607
O_ O_ 0.0963718 0.789299 0.869106 -0.98607
O_ O_ 0.342198 0.53607 0.873485 -0.98607
O_ O_ 0.340298 0.784999 0.86694 -0.98607
O_ O_ 0.094714 0.575637 0.937413 -0.61362
O_ O_ 0.0937868 0.828848 0.936991 -0.61362
O_ O_ 0.342968 0.575357 0.937144 -0.61362
O_ O_ 0.345678 0.823393 0.938503 -0.61362
O_ O_ 0.110534 0.656457 0.69111 -0.55956
O_ O_ 0.106183 0.878869 0.688276 -0.55956
O_ O_ 0.367074 0.648249 0.689265 -0.55956
O_ O_ 0.351699 0.880581 0.688589 -0.55956
O_ O_ 0.224317 0.519948 0.679175 -0.61362
O_ O_ 0.219335 0.765773 0.674456 -0.61362
O_ O_ 0.468531 0.516878 0.681855 -0.61362
O_ O_ 0.474535 0.769821 0.677276 -0.61362
O_ O_ 0.198943 0.533694 0.621774 -0.98607
O_ O_ 0.188065 0.779906 0.611672 -0.98607
O_ O_ 0.442449 0.529828 0.617833 -0.98607
O_ O_ 0.442444 0.780963 0.614116 -0.98607
O_ O_ 0.247735 0.576938 0.684063 -0.61362
O_ O_ 0.231038 0.822386 0.682345 -0.61362
O_ O_ 0.487415 0.573876 0.686795 -0.61362
O_ O_ 0.487921 0.824487 0.682704 -0.61362
O_ O_ 0.0866405 0.680472 0.93324 -0.55956
O_ O_ 0.0687335 0.927339 0.935742 -0.55956
O_ O_ 0.32182 0.676471 0.944827 -0.55956
O_ O_ 0.319649 0.926296 0.934326 -0.55956
O_ O_ 0.208812 0.723124 0.575524 -0.61362
O_ O_ 0.197001 0.976275 0.573063 -0.61362
O_ O_ 0.451262 0.723172 0.574321 -0.61362
O_ O_ 0.459995 0.975865 0.57931 -0.61362
O_ O_ 0.157402 0.711654 0.624178 -0.98607
O_ O_ 0.150677 0.960759 0.62701 -0.98607
O_ O_ 0.40558 0.710142 0.624059 -0.98607
O_ O_ 0.404056 0.962833 0.628136 -0.98607
O_ O_ 0.15421 0.671064 0.557412 -0.61362
O_ O_ 0.149734 0.922442 0.564675 -0.61362
O_ O_ 0.407137 0.668481 0.564042 -0.61362
O_ O_ 0.405555 0.924823 0.56396 -0.61362
O_ O_ 0.141751 0.594975 0.808845 -0.55956
O_ O_ 0.137975 0.862376 0.809632 -0.55956
O_ O_ 0.385704 0.61125 0.815379 -0.55956
O_ O_ 0.39543 0.861107 0.803597 -0.55956
Zn Zn 0.526287 0.173149 0.367904 0.91541
Zn Zn 0.522743 0.421835 0.365684 0.91541
Zn Zn 0.77753 0.174022 0.364639 0.91541
Zn Zn 0.774583 0.42186 0.360063 0.91541
Zn Zn 0.602819 0.0789601 0.387721 0.91541
Zn Zn 0.605374 0.330454 0.389444 0.91541
Zn Zn 0.857467 0.0823085 0.384439 0.91541
Zn Zn 0.85207 0.328891 0.382636 0.91541
Zn Zn 0.724757 0.0793381 0.138808 0.91541
Zn Zn 0.72313 0.326644 0.136513 0.91541
Zn Zn 0.976447 0.0784836 0.137753 0.91541
Zn Zn 0.97397 0.324766 0.134066 0.91541
Zn Zn 0.644667 0.170528 0.117316 0.91541
Zn Zn 0.64804 0.422794 0.111423 0.91541
Zn Zn 0.896287 0.168443 0.11348 0.91541
Zn Zn 0.895778 0.417647 0.113672 0.91541
Zn Zn 0.549649 1.00323857 0.374961 1.11764
Zn Zn 0.559052 0.251806 0.378198 1.11764
Zn Zn 0.803523 0.00192939 0.37187 1.11764
Zn Zn 0.808756 0.252783 0.378651 1.11764
Zn Zn 0.698307 0.501127 0.1243 1.11764
Zn Zn 0.68844 0.246918 0.122618 1.11764
Zn Zn 0.943078 0.495644 0.124483 1.11764
Zn Zn 0.947482 0.246029 0.124454 1.11764
H_ H_ 0.754397 0.144358 0.228473 0.1146
H_ H_ 0.747396 0.38782 0.226596 0.1146
H_ H_ 0.00499061 0.142141 0.225905 0.1146
H_ H_ 1.0072495 0.391086 0.229223 0.1146
H_ H_ 0.686493 0.208581 0.202082 0.1146
H_ H_ 0.691264 0.460224 0.193272 0.1146
H_ H_ 0.938974 0.210135 0.193631 0.1146
H_ H_ 0.936126 0.457632 0.198357 0.1146
H_ H_ 0.717982 0.224291 0.273081 0.1146
H_ H_ 0.726267 0.47619 0.265196 0.1146
H_ H_ 0.976751 0.22987 0.266156 0.1146
H_ H_ 0.966723 0.471019 0.272362 0.1146
H_ H_ 0.675858 0.0659422 0.0403646 0.42917
H_ H_ 0.690312 0.316839 0.0369512 0.42917
H_ H_ 0.948164 0.0738263 0.0396278 0.42917
H_ H_ 0.934678 0.319809 0.0350699 0.42917
H_ H_ 0.641033 0.103578 0.0687098 0.1146
H_ H_ 0.665909 0.363655 0.054903 0.1146
H_ H_ 0.908023 0.104688 0.0552062 0.1146
H_ H_ 0.894701 0.349268 0.0624532 0.1146
H_ H_ 0.601848 0.0405404 0.0772437 0.1146
H_ H_ 0.605997 0.334471 0.0905558 0.1146
H_ H_ 0.852802 0.048502 0.0533081 0.1146
H_ H_ 0.856483 0.324197 0.117109 0.1146
H_ H_ 0.625853 0.0626484 0.131261 0.1146
H_ H_ 0.607332 0.303378 0.0409897 0.1146
H_ H_ 0.876035 0.0564993 0.10642 0.1146
H_ H_ 0.848659 0.287232 0.0652378 0.1146
H_ H_ 0.593082 0.0734896 0.107084 0.1146
H_ H_ 0.623158 0.304047 0.0903177 0.1146
H_ H_ 0.855652 0.0836219 0.0961376 0.1146
H_ H_ 0.883869 0.30076 0.112873 0.1146
H_ H_ 0.583772 0.223454 0.402009 0.42917
H_ H_ 0.582782 0.468987 0.384131 0.42917
H_ H_ 0.836127 0.221467 0.396908 0.42917
H_ H_ 0.823358 0.472379 0.402143 0.42917
H_ H_ 0.6079 0.112547 0.0209837 0.1146
H_ H_ 0.604936 0.372166 0.016816 0.1146
H_ H_ 0.860927 0.112522 0.0223961 0.1146
H_ H_ 0.850622 0.36589 0.0176848 0.1146
H_ H_ 0.726492 0.0460036 0.0486273 0.1146
H_ H_ 0.727731 0.287281 0.0514177 0.1146
H_ H_ 0.977496 0.0434891 0.0497602 0.1146
H_ H_ 0.981138 0.284652 0.0514119 0.1146
H_ H_ 0.75176 0.0196028 0.483634 0.1146
H_ H_ 0.759076 0.267076 0.488283 0.1146
H_ H_ 0.997451 0.0270107 0.478723 0.1146
H_ H_ 0.0005699999999999594 0.270989 0.478008 0.1146
H_ H_ 0.629536 0.133906 0.191982 0.42917
H_ H_ 0.632908 0.386672 0.195179 0.42917
H_ H_ 0.88175 0.139769 0.197263 0.42917
H_ H_ 0.857445 0.362601 0.194865 0.42917
H_ H_ 0.552134 0.123687 0.194152 0.1146
H_ H_ 0.554266 0.379176 0.197169 0.1146
H_ H_ 0.803509 0.127034 0.202695 0.1146
H_ H_ 0.798374 0.377122 0.194922 0.1146
H_ H_ 0.619039 0.189803 0.194919 0.1146
H_ H_ 0.623736 0.444665 0.197967 0.1146
H_ H_ 0.84702 0.186749 0.236328 0.1146
H_ H_ 0.845655 0.432345 0.230832 0.1146
H_ H_ 0.570754 0.182087 0.185235 0.1146
H_ H_ 0.576846 0.438205 0.18533 0.1146
H_ H_ 0.865634 0.188435 0.186532 0.1146
H_ H_ 0.866873 0.441291 0.187006 0.1146
H_ H_ 0.589603 0.182094 0.236436 0.1146
H_ H_ 0.593858 0.435495 0.23631 0.1146
H_ H_ 0.814411 0.18499 0.192148 0.1146
H_ H_ 0.815173 0.428706 0.186716 0.1146
H_ H_ 0.612775 0.0312251 0.374402 0.42917
H_ H_ 0.620351 0.284017 0.377132 0.42917
H_ H_ 0.866285 0.0319235 0.368396 0.42917
H_ H_ 0.87023 0.284581 0.373056 0.42917
H_ H_ 0.494321 0.108094 0.272499 0.1146
H_ H_ 0.497668 0.358765 0.275275 0.1146
H_ H_ 0.758123 0.116353 0.268668 0.1146
H_ H_ 0.750244 0.358898 0.267165 0.1146
H_ H_ 0.5519 0.0351607 0.308378 0.1146
H_ H_ 0.562265 0.292341 0.308998 0.1146
H_ H_ 0.822884 0.0469475 0.301663 0.1146
H_ H_ 0.805059 0.286222 0.298157 0.1146
H_ H_ 0.526632 0.0220892 0.233209 0.1146
H_ H_ 0.526138 0.272969 0.236357 0.1146
H_ H_ 0.783419 0.0255323 0.231661 0.1146
H_ H_ 0.767574 0.26834 0.226729 0.1146
H_ H_ 0.570449 0.180458 0.461882 0.42917
H_ H_ 0.572878 0.446752 0.448102 0.42917
H_ H_ 0.812932 0.176398 0.456038 0.42917
H_ H_ 0.795242 0.41812 0.459915 0.42917
H_ H_ 0.606269 0.145739 0.432904 0.1146
H_ H_ 0.596669 0.398223 0.443911 0.1146
H_ H_ 0.85825 0.147616 0.437473 0.1146
H_ H_ 0.835235 0.383737 0.440112 0.1146
H_ H_ 0.652202 0.207743 0.433983 0.1146
H_ H_ 0.653738 0.456073 0.439343 0.1146
H_ H_ 0.904524 0.212035 0.42931 0.1146
H_ H_ 0.891648 0.421027 0.406678 0.1146
H_ H_ 0.627247 0.18963 0.378729 0.1146
H_ H_ 0.620808 0.444706 0.391892 0.1146
H_ H_ 0.874802 0.190394 0.375381 0.1146
H_ H_ 0.886182 0.445848 0.454772 0.1146
H_ H_ 0.656305 0.173437 0.399527 0.1146
H_ H_ 0.647275 0.419826 0.394257 0.1146
H_ H_ 0.904296 0.174234 0.393726 0.1146
H_ H_ 0.866634 0.444978 0.405904 0.1146
H_ H_ 0.671319 0.0322484 0.110255 0.42917
H_ H_ 0.665769 0.280329 0.103481 0.42917
H_ H_ 0.921423 0.0282406 0.102248 0.42917
H_ H_ 0.924812 0.275022 0.0934572 0.42917
H_ H_ 0.643423 0.141354 0.483133 0.1146
H_ H_ 0.64422 0.388629 0.479147 0.1146
H_ H_ 0.899708 0.138447 0.48402 0.1146
H_ H_ 0.889886 0.38819 0.479605 0.1146
H_ H_ 0.517344 0.216696 0.445767 0.1146
H_ H_ 0.517548 0.457713 0.448747 0.1146
H_ H_ 0.771535 0.209818 0.442824 0.1146
H_ H_ 0.772153 0.465733 0.449867 0.1146
H_ H_ 0.500907 0.226004 0.0199947 0.1146
H_ H_ 0.502987 0.473157 0.0236473 0.1146
H_ H_ 0.745733 0.232401 0.0171482 0.1146
H_ H_ 0.760773 0.473521 0.0262474 0.1146
H_ H_ 0.614415 0.0949254 0.293845 0.42917
H_ H_ 0.634085 0.359702 0.29009 0.42917
H_ H_ 0.882706 0.112748 0.28663 0.42917
H_ H_ 0.890201 0.383106 0.30493 0.42917
H_ H_ 0.693787 0.125372 0.30652 0.1146
H_ H_ 0.700731 0.368878 0.30268 0.1146
H_ H_ 0.951908 0.121973 0.302742 0.1146
H_ H_ 0.94906 0.371477 0.302 0.1146
H_ H_ 0.703347 0.075838 0.313864 0.1146
H_ H_ 0.639414 0.297492 0.302655 0.1146
H_ H_ 0.941254 0.0695169 0.312237 0.1146
H_ H_ 0.883863 0.308017 0.319248 0.1146
H_ H_ 0.663045 0.0629877 0.269488 0.1146
H_ H_ 0.690501 0.313151 0.330222 0.1146
H_ H_ 0.910436 0.0645639 0.267355 0.1146
H_ H_ 0.932487 0.313745 0.310251 0.1146
H_ H_ 0.648694 0.0513044 0.315151 0.1146
H_ H_ 0.679955 0.306607 0.27607 0.1146
H_ H_ 0.888997 0.0557708 0.31615 0.1146
H_ H_ 0.898526 0.311489 0.271495 0.1146
H_ H_ 0.628505 0.213443 0.128001 0.42917
H_ H_ 0.639159 0.467936 0.134844 0.42917
H_ H_ 0.883639 0.211897 0.118213 0.42917
H_ H_ 0.88328 0.464219 0.131286 0.42917
C_ C_ 0.740994 0.158803 0.222811 -0.12085
C_ C_ 0.741048 0.406759 0.219245 -0.12085
C_ C_ 0.989287 0.156438 0.220758 -0.12085
C_ C_ 0.988229 0.402962 0.223867 -0.12085
C_ C_ 0.512957 0.195416 0.302388 0.6956
C_ C_ 0.50849 0.44551 0.302585 0.6956
C_ C_ 0.765913 0.198777 0.302119 0.6956
C_ C_ 0.767949 0.449231 0.295561 0.6956
C_ C_ 0.744401 0.188394 0.257036 -0.16651
C_ C_ 0.745628 0.437504 0.251701 -0.16651
C_ C_ 0.991352 0.18601 0.25291 -0.16651
C_ C_ 0.989717 0.432746 0.256706 -0.16651
C_ C_ 0.702129 0.194653 0.206593 -0.12085
C_ C_ 0.705448 0.445655 0.200237 -0.12085
C_ C_ 0.950043 0.193136 0.2023 -0.12085
C_ C_ 0.949729 0.441277 0.205148 -0.12085
C_ C_ 0.725281 0.152152 0.181099 0.16698
C_ C_ 0.720745 0.398021 0.177577 0.16698
C_ C_ 0.972148 0.14729 0.177953 0.16698
C_ C_ 0.967238 0.392444 0.181569 0.16698
C_ C_ 0.680691 0.121824 0.125909 0.36401
C_ C_ 0.683086 0.372456 0.118692 0.36401
C_ C_ 0.937496 0.120353 0.116602 0.36401
C_ C_ 0.931757 0.36657 0.121726 0.36401
C_ C_ 0.705973 0.171363 0.172836 0.16698
C_ C_ 0.706345 0.418841 0.167964 0.16698
C_ C_ 0.954354 0.16747 0.168346 0.16698
C_ C_ 0.94728 0.411956 0.174582 0.16698
C_ C_ 0.723725 0.205189 0.248734 -0.12085
C_ C_ 0.725212 0.454686 0.240931 -0.12085
C_ C_ 0.974178 0.205035 0.240971 -0.12085
C_ C_ 0.967794 0.449108 0.247242 -0.12085
C_ C_ 0.652858 0.0916874 0.0886251 0.15351
C_ C_ 0.666432 0.347997 0.07386 0.15351
C_ C_ 0.911677 0.091659 0.0768659 0.15351
C_ C_ 0.904585 0.337092 0.0818547 0.15351
C_ C_ 0.617075 0.0657575 0.102379 -0.35079
C_ C_ 0.622041 0.320575 0.0726589 -0.35079
C_ C_ 0.871027 0.0676335 0.0829556 -0.35079
C_ C_ 0.868681 0.3098 0.0932381 -0.35079
C_ C_ 0.577313 0.0996655 0.025914 -0.12085
C_ C_ 0.576991 0.356392 0.0242745 -0.12085
C_ C_ 0.830394 0.0999069 0.0260643 -0.12085
C_ C_ 0.828183 0.347299 0.0261221 -0.12085
C_ C_ 0.568058 0.0564912 0.451969 0.6956
C_ C_ 0.566637 0.305404 0.451661 0.6956
C_ C_ 0.812499 0.0550825 0.444919 0.6956
C_ C_ 0.816486 0.305428 0.450445 0.6956
C_ C_ 0.556866 0.0685244 0.496377 -0.16651
C_ C_ 0.555764 0.316556 0.496425 -0.16651
C_ C_ 0.805114 0.0664289 0.490384 -0.16651
C_ C_ 0.808088 0.315353 0.49504 -0.16651
C_ C_ 0.752522 0.0616807 0.0400918 -0.12085
C_ C_ 0.754791 0.303385 0.0429042 -0.12085
C_ C_ 0.00898798 0.0579652 0.0439683 -0.12085
C_ C_ 0.00547769 0.301761 0.0437605 -0.12085
C_ C_ 0.565763 0.108214 0.0665657 0.16698
C_ C_ 0.569382 0.363865 0.0664121 0.16698
C_ C_ 0.816325 0.110616 0.0667495 0.16698
C_ C_ 0.815926 0.355087 0.0658031 0.16698
C_ C_ 0.56377 0.121697 0.131762 0.36401
C_ C_ 0.565011 0.377511 0.132632 0.36401
C_ C_ 0.811728 0.123712 0.132773 0.36401
C_ C_ 0.813556 0.370377 0.131738 0.36401
C_ C_ 0.528894 0.0864752 0.0736573 0.16698
C_ C_ 0.534433 0.339501 0.0743636 0.16698
C_ C_ 0.779292 0.0911789 0.0730138 0.16698
C_ C_ 0.779081 0.334363 0.0733356 0.16698
C_ C_ 0.519242 0.0477371 0.504948 -0.12085
C_ C_ 0.521666 0.293848 0.507327 -0.12085
C_ C_ 0.77013 0.0453128 0.50373 -0.12085
C_ C_ 0.777545 0.292211 0.508964 -0.12085
C_ C_ 0.577974 0.137446 0.180224 0.15351
C_ C_ 0.580127 0.390211 0.181129 0.15351
C_ C_ 0.826979 0.13825 0.18191 0.15351
C_ C_ 0.824686 0.386936 0.179093 0.15351
C_ C_ 0.589642 0.174769 0.200854 -0.35079
C_ C_ 0.592176 0.427902 0.201919 -0.35079
C_ C_ 0.838116 0.177189 0.200653 -0.35079
C_ C_ 0.840906 0.424851 0.19665 -0.35079
C_ C_ 0.506251 0.0914674 0.280258 -0.12085
C_ C_ 0.509518 0.344271 0.282618 -0.12085
C_ C_ 0.768128 0.0991004 0.276787 -0.12085
C_ C_ 0.762156 0.343315 0.27289 -0.12085
C_ C_ 0.746348 0.0568505 0.19887 0.6956
C_ C_ 0.737133 0.301894 0.194335 0.6956
C_ C_ 0.99061 0.0542181 0.198338 0.6956
C_ C_ 0.985202 0.305031 0.201048 0.6956
C_ C_ 0.503161 0.0601335 0.247288 -0.16651
C_ C_ 0.509721 0.315794 0.25032 -0.16651
C_ C_ 0.761968 0.066628 0.245076 -0.16651
C_ C_ 0.757144 0.312237 0.240276 -0.16651
C_ C_ 0.540138 0.0514602 0.299054 -0.12085
C_ C_ 0.547644 0.305449 0.299925 -0.12085
C_ C_ 0.805111 0.0594281 0.295148 -0.12085
C_ C_ 0.793657 0.303218 0.291654 -0.12085
C_ C_ 0.526682 0.101447 0.320348 0.16698
C_ C_ 0.527873 0.351341 0.323903 0.16698
C_ C_ 0.786232 0.107487 0.318015 0.16698
C_ C_ 0.785771 0.354262 0.311056 0.16698
C_ C_ 0.570048 0.130356 0.376763 0.36401
C_ C_ 0.566098 0.37962 0.383005 0.36401
C_ C_ 0.822582 0.133613 0.378792 0.36401
C_ C_ 0.812791 0.374892 0.377506 0.36401
C_ C_ 0.542369 0.0810611 0.328747 0.16698
C_ C_ 0.546606 0.331937 0.331257 0.16698
C_ C_ 0.802263 0.0867863 0.325854 0.16698
C_ C_ 0.805145 0.335428 0.318135 0.16698
C_ C_ 0.522052 0.0413063 0.258254 -0.12085
C_ C_ 0.524021 0.29355 0.261657 -0.12085
C_ C_ 0.784413 0.0489788 0.25531 -0.12085
C_ C_ 0.771432 0.291989 0.251819 -0.12085
C_ C_ 0.596165 0.158584 0.415908 0.15351
C_ C_ 0.5935 0.410397 0.420827 0.15351
C_ C_ 0.848781 0.161173 0.4173 0.15351
C_ C_ 0.832293 0.400833 0.422318 0.15351
C_ C_ 0.634555 0.184208 0.405781 -0.35079
C_ C_ 0.632441 0.433831 0.411812 -0.35079
C_ C_ 0.884752 0.187631 0.403959 -0.35079
C_ C_ 0.871106 0.42926 0.423062 -0.35079
C_ C_ 0.673019 0.154977 0.475956 -0.12085
C_ C_ 0.675107 0.403829 0.476176 -0.12085
C_ C_ 0.928807 0.153136 0.477948 -0.12085
C_ C_ 0.920237 0.401245 0.474065 -0.12085
C_ C_ 0.680965 0.192488 0.0519652 0.6956
C_ C_ 0.6886 0.445526 0.0507851 0.6956
C_ C_ 0.935774 0.191158 0.0509874 0.6956
C_ C_ 0.931455 0.440259 0.0492554 0.6956
C_ C_ 0.690371 0.183635 0.00703281 -0.16651
C_ C_ 0.700937 0.433331 0.00891418 -0.16651
C_ C_ 0.943483 0.182609 0.00476036 -0.16651
C_ C_ 0.943757 0.430382 0.00520127 -0.16651
C_ C_ 0.489753 0.198372 0.453942 -0.12085
C_ C_ 0.492689 0.439415 0.457074 -0.12085
C_ C_ 0.746631 0.193415 0.454808 -0.12085
C_ C_ 0.745469 0.44665 0.455943 -0.12085
C_ C_ 0.685796 0.140183 0.437056 0.16698
C_ C_ 0.686169 0.393127 0.435044 0.16698
C_ C_ 0.937388 0.145217 0.43394 0.16698
C_ C_ 0.933689 0.391099 0.434346 0.16698
C_ C_ 0.686648 0.123487 0.369182 0.36401
C_ C_ 0.690375 0.372768 0.369872 0.36401
C_ C_ 0.941681 0.128417 0.368969 0.36401
C_ C_ 0.93837 0.375449 0.365847 0.36401
C_ C_ 0.722946 0.160199 0.427011 0.16698
C_ C_ 0.719741 0.415055 0.424481 0.16698
C_ C_ 0.9747 0.166721 0.427149 0.16698
C_ C_ 0.971521 0.410811 0.425739 0.16698
C_ C_ 0.727501 0.20512 0.99628 -0.12085
C_ C_ 0.739074 0.451331 1.00115 -0.12085
C_ C_ 0.982412 0.203342 0.995973 -0.12085
C_ C_ 0.977059 0.453015 0.993886 -0.12085
C_ C_ 0.671329 0.106822 0.321511 0.15351
C_ C_ 0.677694 0.355001 0.320208 0.15351
C_ C_ 0.928629 0.111566 0.320965 0.15351
C_ C_ 0.92313 0.360137 0.318496 0.15351
C_ C_ 0.671328 0.0721663 0.305236 -0.35079
C_ C_ 0.671705 0.317852 0.308279 -0.35079
C_ C_ 0.914785 0.0725763 0.302734 -0.35079
C_ C_ 0.909057 0.3212 0.303436 -0.35079
N_ N_ 0.70831 0.120254 0.152009 -0.51457
N_ N_ 0.706257 0.366973 0.14531 -0.51457
N_ N_ 0.960124 0.116994 0.145515 -0.51457
N_ N_ 0.957359 0.363088 0.148703 -0.51457
N_ N_ 0.679884 0.153676 0.136532 -0.51457
N_ N_ 0.682622 0.404262 0.130906 -0.51457
N_ N_ 0.93176 0.149954 0.130471 -0.51457
N_ N_ 0.928413 0.397619 0.135526 -0.51457
N_ N_ 0.58846 0.131679 0.10272 -0.51457
N_ N_ 0.591423 0.387921 0.10305 -0.51457
N_ N_ 0.839131 0.132526 0.104495 -0.51457
N_ N_ 0.837938 0.381307 0.102319 -0.51457
N_ N_ 0.526721 0.0957617 0.115279 -0.51457
N_ N_ 0.530703 0.34763 0.115042 -0.51457
N_ N_ 0.775823 0.0950393 0.114176 -0.51457
N_ N_ 0.776328 0.343829 0.115288 -0.51457
N_ N_ 0.542832 0.134206 0.351275 -0.51457
N_ N_ 0.540063 0.381948 0.356292 -0.51457
N_ N_ 0.798421 0.137466 0.351373 -0.51457
N_ N_ 0.793036 0.382354 0.347473 -0.51457
N_ N_ 0.569476 0.0979117 0.364857 -0.51457
N_ N_ 0.571088 0.349931 0.368717 -0.51457
N_ N_ 0.823527 0.102302 0.36497 -0.51457
N_ N_ 0.823136 0.347971 0.358641 -0.51457
N_ N_ 0.661073 0.116789 0.400016 -0.51457
N_ N_ 0.663504 0.365934 0.399234 -0.51457
N_ N_ 0.914446 0.120638 0.397096 -0.51457
N_ N_ 0.911214 0.368448 0.395698 -0.51457
N_ N_ 0.723398 0.150978 0.38532 -0.51457
N_ N_ 0.725675 0.400851 0.384782 -0.51457
N_ N_ 0.977611 0.15748 0.386414 -0.51457
N_ N_ 0.974906 0.401204 0.384203 -0.51457
O_ O_ 0.528134 0.229369 0.324724 -0.61362
O_ O_ 0.514881 0.47503 0.329892 -0.61362
O_ O_ 0.770454 0.227818 0.33188 -0.61362
O_ O_ 0.781816 0.48118 0.319638 -0.61362
O_ O_ 0.561758 0.216922 0.385346 -0.98607
O_ O_ 0.558401 0.466295 0.380069 -0.98607
O_ O_ 0.813849 0.216978 0.383121 -0.98607
O_ O_ 0.805188 0.465625 0.381592 -0.98607
O_ O_ 0.519752 0.173407 0.315965 -0.61362
O_ O_ 0.520843 0.425618 0.313996 -0.61362
O_ O_ 0.771229 0.174928 0.313419 -0.61362
O_ O_ 0.770888 0.425489 0.308096 -0.61362
O_ O_ 0.670726 0.074202 0.0663377 -0.55956
O_ O_ 0.688918 0.332774 0.059294 -0.55956
O_ O_ 0.929225 0.0750254 0.0557717 -0.55956
O_ O_ 0.922858 0.321216 0.0578436 -0.55956
O_ O_ 0.545934 0.0261675 0.426302 -0.61362
O_ O_ 0.546461 0.2739 0.425176 -0.61362
O_ O_ 0.789193 0.0220559 0.42077 -0.61362
O_ O_ 0.794929 0.273452 0.425214 -0.61362
O_ O_ 0.592061 0.0360356 0.374915 -0.98607
O_ O_ 0.599153 0.286486 0.376792 -0.98607
O_ O_ 0.846598 0.0371103 0.373969 -0.98607
O_ O_ 0.847864 0.287235 0.374278 -0.98607
O_ O_ 0.594812 0.0811399 0.439312 -0.61362
O_ O_ 0.593738 0.328135 0.438877 -0.61362
O_ O_ 0.836685 0.0770007 0.429244 -0.61362
O_ O_ 0.842002 0.328716 0.436178 -0.61362
O_ O_ 0.605883 0.130217 0.191941 -0.55956
O_ O_ 0.606585 0.381111 0.190361 -0.55956
O_ O_ 0.85636 0.132511 0.190372 -0.55956
O_ O_ 0.851331 0.378632 0.192935 -0.55956
O_ O_ 0.73504 0.0241144 0.174669 -0.61362
O_ O_ 0.725198 0.269128 0.16962 -0.61362
O_ O_ 0.983077 0.023385 0.171876 -0.61362
O_ O_ 0.975418 0.273112 0.176821 -0.61362
O_ O_ 0.692975 0.0354757 0.121859 -0.98607
O_ O_ 0.688083 0.284386 0.116584 -0.98607
O_ O_ 0.9432 0.0340234 0.118075 -0.98607
O_ O_ 0.941678 0.280349 0.114426 -0.98607
O_ O_ 0.732245 0.0761919 0.189496 -0.61362
O_ O_ 0.719634 0.320002 0.185003 -0.61362
O_ O_ 0.979189 0.0745021 0.187996 -0.61362
O_ O_ 0.985108 0.328289 0.186166 -0.61362
O_ O_ 0.578334 0.17563 0.438456 -0.55956
O_ O_ 0.574933 0.427696 0.439781 -0.55956
O_ O_ 0.830435 0.17663 0.439973 -0.55956
O_ O_ 0.81019 0.413465 0.441737 -0.55956
O_ O_ 0.701525 0.222833 0.0797426 -0.61362
O_ O_ 0.706772 0.477651 0.0738024 -0.61362
O_ O_ 0.959941 0.222208 0.0785534 -0.61362
O_ O_ 0.954753 0.469985 0.077142 -0.61362
O_ O_ 0.650421 0.212133 0.127583 -0.98607
O_ O_ 0.660034 0.466025 0.127862 -0.98607
O_ O_ 0.905268 0.211035 0.125032 -0.98607
O_ O_ 0.903985 0.461481 0.127947 -0.98607
O_ O_ 0.654275 0.168543 0.0642997 -0.61362
O_ O_ 0.65644 0.426625 0.0599906 -0.61362
O_ O_ 0.90215 0.172514 0.0630323 -0.61362
O_ O_ 0.905319 0.416359 0.0620492 -0.61362
O_ O_ 0.635686 0.10422 0.312862 -0.55956
O_ O_ 0.644919 0.354577 0.307296 -0.55956
O_ O_ 0.898557 0.115874 0.307831 -0.55956
O_ O_ 0.895788 0.366869 0.306227 -0.55956
Zn Zn 0.523077 0.175892 0.869743 0.91541
Zn Zn 0.525289 0.423394 0.865446 0.91541
Zn Zn 0.769464 0.172478 0.86358 0.91541
Zn Zn 0.778863 0.425429 0.865838 0.91541
Zn Zn 0.601138 0.0818194 0.887054 0.91541
Zn Zn 0.605379 0.332434 0.886953 0.91541
Zn Zn 0.851391 0.0816527 0.88342 0.91541
Zn Zn 0.852119 0.328913 0.885307 0.91541
Zn Zn 0.726603 0.0746942 0.630195 0.91541
Zn Zn 0.730836 0.327559 0.636569 0.91541
Zn Zn 0.970268 0.0757937 0.63562 0.91541
Zn Zn 0.980215 0.325868 0.636179 0.91541
Zn Zn 0.649806 0.169707 0.615184 0.91541
Zn Zn 0.64789 0.420247 0.613837 0.91541
Zn Zn 0.901795 0.172236 0.612119 0.91541
Zn Zn 0.902309 0.420852 0.615821 0.91541
Zn Zn 0.555839 1.00392597 0.875821 1.11764
Zn Zn 0.553533 0.256288 0.875264 1.11764
Zn Zn 0.804539 0.00206656 0.875633 1.11764
Zn Zn 0.802014 0.251165 0.871645 1.11764
Zn Zn 0.697688 0.497678 0.622196 1.11764
Zn Zn 0.706149 0.250197 0.627043 1.11764
Zn Zn 0.95005 0.496839 0.628577 1.11764
Zn Zn 0.952394 0.250845 0.623312 1.11764
H_ H_ 0.751967 0.136299 0.726559 0.1146
H_ H_ 0.736378 0.383442 0.735179 0.1146
H_ H_ -0.010098999999999969 0.136321 0.734155 0.1146
H_ H_ 0.00521774 0.387233 0.728151 0.1146
H_ H_ 0.68778 0.203722 0.690876 0.1146
H_ H_ 0.695462 0.461964 0.689234 0.1146
H_ H_ 0.945072 0.213456 0.691158 0.1146
H_ H_ 0.940662 0.454257 0.694024 0.1146
H_ H_ 0.712691 0.218668 0.765838 0.1146
H_ H_ 0.731228 0.482401 0.765006 0.1146
H_ H_ 0.979007 0.230524 0.767324 0.1146
H_ H_ 0.969629 0.46903 0.770958 0.1146
H_ H_ 0.703472 0.0809142 0.534884 0.42917
H_ H_ 0.68964 0.318825 0.530915 0.42917
H_ H_ 0.944079 0.079385 0.544366 0.42917
H_ H_ 0.932236 0.307537 0.540553 0.42917
H_ H_ 0.656198 0.105268 0.554023 0.1146
H_ H_ 0.656303 0.352797 0.558521 0.1146
H_ H_ 0.895311 0.102286 0.562995 0.1146
H_ H_ 0.904002 0.352897 0.558464 0.1146
H_ H_ 0.638166 0.0508454 0.596461 0.1146
H_ H_ 0.611846 0.294196 0.558605 0.1146
H_ H_ 0.869513 0.0469715 0.609274 0.1146
H_ H_ 0.880455 0.307615 0.619402 0.1146
H_ H_ 0.61018 0.0748237 0.594151 0.1146
H_ H_ 0.637625 0.303429 0.611894 0.1146
H_ H_ 0.85448 0.0818375 0.619614 0.1146
H_ H_ 0.856987 0.331708 0.609811 0.1146
H_ H_ 0.617288 0.0501766 0.542292 0.1146
H_ H_ 0.609884 0.326847 0.60635 0.1146
H_ H_ 0.839702 0.0496518 0.571687 0.1146
H_ H_ 0.854213 0.293527 0.570844 0.1146
H_ H_ 0.576753 0.224909 0.900873 0.42917
H_ H_ 0.586413 0.473969 0.894226 0.42917
H_ H_ 0.82099 0.221469 0.899886 0.42917
H_ H_ 0.836929 0.473468 0.881532 0.42917
H_ H_ 0.608312 0.117228 0.52671 0.1146
H_ H_ 0.609584 0.365586 0.525375 0.1146
H_ H_ 0.860836 0.111942 0.519375 0.1146
H_ H_ 0.863896 0.362636 0.520347 0.1146
H_ H_ 0.736296 0.034559 0.553875 0.1146
H_ H_ 0.738015 0.286459 0.556538 0.1146
H_ H_ 0.97859 0.0424646 0.550467 0.1146
H_ H_ 0.99033 0.282768 0.550759 0.1146
H_ H_ 0.740501 0.0292673 0.974314 0.1146
H_ H_ 0.742945 0.273063 0.973174 0.1146
H_ H_ 0.997541 0.0274671 0.976836 0.1146
H_ H_ -0.002314999999999956 0.270742 0.978843 0.1146
H_ H_ 0.630692 0.132777 0.696021 0.42917
H_ H_ 0.618878 0.390108 0.712766 0.42917
H_ H_ 0.878874 0.131189 0.695651 0.42917
H_ H_ 0.880266 0.386702 0.688467 0.42917
H_ H_ 0.553874 0.120964 0.69683 0.1146
H_ H_ 0.5528 0.381668 0.69737 0.1146
H_ H_ 0.80607 0.127372 0.698418 0.1146
H_ H_ 0.807955 0.382378 0.696118 0.1146
H_ H_ 0.563855 0.177675 0.707662 0.1146
H_ H_ 0.560708 0.438296 0.677452 0.1146
H_ H_ 0.849932 0.191913 0.72762 0.1146
H_ H_ 0.832149 0.445799 0.725724 0.1146
H_ H_ 0.609678 0.182145 0.739789 0.1146
H_ H_ 0.579772 0.44147 0.727063 0.1146
H_ H_ 0.864547 0.192937 0.674945 0.1146
H_ H_ 0.864626 0.446947 0.681846 0.1146
H_ H_ 0.614361 0.190663 0.690608 0.1146
H_ H_ 0.613904 0.451758 0.688372 0.1146
H_ H_ 0.814163 0.180751 0.683512 0.1146
H_ H_ 0.812022 0.433634 0.672955 0.1146
H_ H_ 0.616834 0.0357902 0.875568 0.42917
H_ H_ 0.614411 0.283593 0.868658 0.42917
H_ H_ 0.865805 0.0362989 0.872334 0.42917
H_ H_ 0.864916 0.283023 0.86473 0.42917
H_ H_ 0.49988 0.113859 0.769755 0.1146
H_ H_ 0.495019 0.35891 0.76883 0.1146
H_ H_ 0.738134 0.106436 0.774886 0.1146
H_ H_ 0.753096 0.363264 0.776069 0.1146
H_ H_ 0.55754 0.0424715 0.807303 0.1146
H_ H_ 0.558909 0.28843 0.801502 0.1146
H_ H_ 0.816183 0.0467614 0.803208 0.1146
H_ H_ 0.807716 0.289855 0.810265 0.1146
H_ H_ 0.518119 0.0219855 0.732431 0.1146
H_ H_ 0.525612 0.273645 0.729803 0.1146
H_ H_ 0.783682 0.0297008 0.731018 0.1146
H_ H_ 0.7736 0.272761 0.739247 0.1146
H_ H_ 0.570924 0.190398 0.965439 0.42917
H_ H_ 0.567972 0.43348 0.961434 0.42917
H_ H_ 0.820562 0.185119 0.970763 0.42917
H_ H_ 0.82838 0.437131 0.970965 0.42917
H_ H_ 0.600318 0.14733 0.935142 0.1146
H_ H_ 0.594437 0.393259 0.93759 0.1146
H_ H_ 0.846164 0.145584 0.937221 0.1146
H_ H_ 0.859755 0.398135 0.943387 0.1146
H_ H_ 0.622845 0.210611 0.90974 0.1146
H_ H_ 0.645444 0.416288 0.88746 0.1146
H_ H_ 0.895598 0.20642 0.943041 0.1146
H_ H_ 0.895638 0.417816 0.879611 0.1146
H_ H_ 0.638889 0.178996 0.880745 0.1146
H_ H_ 0.658206 0.447747 0.934961 0.1146
H_ H_ 0.866077 0.196446 0.890631 0.1146
H_ H_ 0.906654 0.44713 0.930142 0.1146
H_ H_ 0.654641 0.200039 0.935783 0.1146
H_ H_ 0.626357 0.445372 0.888422 0.1146
H_ H_ 0.89366 0.171753 0.895055 0.1146
H_ H_ 0.874173 0.446854 0.888704 0.1146
H_ H_ 0.678446 0.0250779 0.589105 0.42917
H_ H_ 0.677721 0.277352 0.60521 0.42917
H_ H_ 0.920563 0.0276205 0.59787 0.42917
H_ H_ 0.933123 0.279527 0.588852 0.42917
H_ H_ 0.638516 0.139122 0.980868 0.1146
H_ H_ 0.644483 0.391446 0.978393 0.1146
H_ H_ 0.88798 0.138442 0.978926 0.1146
H_ H_ 0.91014 0.377238 0.988854 0.1146
H_ H_ 0.513592 0.209788 0.947466 0.1146
H_ H_ 0.519282 0.462376 0.949636 0.1146
H_ H_ 0.766564 0.214993 0.952366 0.1146
H_ H_ 0.775297 0.459411 0.953976 0.1146
H_ H_ 0.49786 0.233612 0.516978 0.1146
H_ H_ 0.497815 0.47405 0.520227 0.1146
H_ H_ 0.756892 0.224692 0.521499 0.1146
H_ H_ 0.760292 0.474041 0.520508 0.1146
H_ H_ 0.621891 0.123029 0.7938 0.42917
H_ H_ 0.618227 0.349723 0.795275 0.42917
H_ H_ 0.878781 0.127632 0.805775 0.42917
H_ H_ 0.88295 0.365616 0.785394 0.42917
H_ H_ 0.692803 0.132789 0.806321 0.1146
H_ H_ 0.70131 0.375254 0.803934 0.1146
H_ H_ 0.948208 0.126713 0.801975 0.1146
H_ H_ 0.947526 0.371346 0.803927 0.1146
H_ H_ 0.647345 0.0693588 0.770733 0.1146
H_ H_ 0.672186 0.318266 0.7729 0.1146
H_ H_ 0.939611 0.0715102 0.805294 0.1146
H_ H_ 0.93286 0.312024 0.821765 0.1146
H_ H_ 0.633396 0.0650916 0.818648 0.1146
H_ H_ 0.645009 0.307722 0.813954 0.1146
H_ H_ 0.908633 0.0680044 0.76304 0.1146
H_ H_ 0.91707 0.309531 0.770459 0.1146
H_ H_ 0.687315 0.0773356 0.81192 0.1146
H_ H_ 0.695545 0.320905 0.820175 0.1146
H_ H_ 0.884143 0.0580112 0.807333 0.1146
H_ H_ 0.881349 0.304712 0.806652 0.1146
H_ H_ 0.64271 0.219184 0.634572 0.42917
H_ H_ 0.63718 0.46927 0.637308 0.42917
H_ H_ 0.88722 0.219584 0.625816 0.42917
H_ H_ 0.886856 0.467628 0.625222 0.42917
C_ C_ 0.741466 0.153839 0.719255 -0.12085
C_ C_ 0.732771 0.402416 0.724473 -0.12085
C_ C_ 0.981265 0.153035 0.724819 -0.12085
C_ C_ 0.99696 0.404527 0.720142 -0.12085
C_ C_ 0.507283 0.199304 0.805042 0.6956
C_ C_ 0.517237 0.448411 0.802909 0.6956
C_ C_ 0.764941 0.198448 0.795499 0.6956
C_ C_ 0.760608 0.447871 0.800682 0.6956
C_ C_ 0.742416 0.184008 0.752292 -0.16651
C_ C_ 0.737883 0.434871 0.755799 -0.16651
C_ C_ 0.991444 0.185821 0.754407 -0.16651
C_ C_ 0.996046 0.433058 0.753714 -0.16651
C_ C_ 0.703847 0.19152 0.700216 -0.12085
C_ C_ 0.705274 0.445358 0.700566 -0.12085
C_ C_ 0.961971 0.199903 0.698223 -0.12085
C_ C_ 0.957274 0.441564 0.70068 -0.12085
C_ C_ 0.726227 0.147205 0.676044 0.16698
C_ C_ 0.72269 0.396438 0.680707 0.16698
C_ C_ 0.968657 0.145648 0.680155 0.16698
C_ C_ 0.97893 0.396476 0.67665 0.16698
C_ C_ 0.688468 0.120885 0.617527 0.36401
C_ C_ 0.686959 0.369782 0.619677 0.36401
C_ C_ 0.930899 0.119164 0.621142 0.36401
C_ C_ 0.939199 0.368127 0.617878 0.36401
C_ C_ 0.711399 0.168842 0.667554 0.16698
C_ C_ 0.707744 0.41741 0.669325 0.16698
C_ C_ 0.957423 0.167586 0.66806 0.16698
C_ C_ 0.962811 0.417201 0.66693 0.16698
C_ C_ 0.72184 0.201571 0.74105 -0.12085
C_ C_ 0.725499 0.456428 0.742749 -0.12085
C_ C_ 0.977319 0.207697 0.742082 -0.12085
C_ C_ 0.974985 0.450511 0.743814 -0.12085
C_ C_ 0.665824 0.0935622 0.57501 0.15351
C_ C_ 0.665415 0.342029 0.577923 0.15351
C_ C_ 0.905946 0.0908362 0.583203 0.15351
C_ C_ 0.910908 0.339324 0.579523 0.15351
C_ C_ 0.629781 0.0641632 0.576987 -0.35079
C_ C_ 0.630081 0.314796 0.590145 -0.35079
C_ C_ 0.866752 0.0656448 0.59506 -0.35079
C_ C_ 0.87378 0.316846 0.595374 -0.35079
C_ C_ 0.579851 0.100023 0.529408 -0.12085
C_ C_ 0.580063 0.3489 0.527458 -0.12085
C_ C_ 0.832614 0.0978657 0.524491 -0.12085
C_ C_ 0.834023 0.347759 0.526185 -0.12085
C_ C_ 0.563275 0.0592567 0.95019 0.6956
C_ C_ 0.563819 0.313189 0.950246 0.6956
C_ C_ 0.813739 0.0595852 0.947357 0.6956
C_ C_ 0.813867 0.307641 0.946774 0.6956
C_ C_ 0.551426 0.068831 0.993433 -0.16651
C_ C_ 0.55092 0.32411 0.99241 -0.16651
C_ C_ 0.801684 0.0715966 0.991118 -0.16651
C_ C_ 0.801587 0.31935 0.991216 -0.16651
C_ C_ 0.761342 0.054539 0.544781 -0.12085
C_ C_ 0.765367 0.304315 0.549045 -0.12085
C_ C_ 0.00608512 0.0583579 0.545194 -0.12085
C_ C_ 0.0114076 0.303854 0.542635 -0.12085
C_ C_ 0.567024 0.107054 0.567242 0.16698
C_ C_ 0.566357 0.359955 0.566418 0.16698
C_ C_ 0.821102 0.107001 0.565391 0.16698
C_ C_ 0.821036 0.357802 0.564628 0.16698
C_ C_ 0.563747 0.123949 0.634661 0.36401
C_ C_ 0.567359 0.378094 0.634457 0.36401
C_ C_ 0.818717 0.123846 0.632255 0.36401
C_ C_ 0.819676 0.376161 0.633498 0.36401
C_ C_ 0.529096 0.0868686 0.574168 0.16698
C_ C_ 0.529567 0.338548 0.575495 0.16698
C_ C_ 0.785445 0.0854851 0.573913 0.16698
C_ C_ 0.786792 0.336413 0.575694 0.16698
C_ C_ 0.517992 0.0448962 0.00412746 -0.12085
C_ C_ 0.515595 0.302423 0.00468746 -0.12085
C_ C_ 0.763507 0.0523751 -0.00150316 -0.12085
C_ C_ 0.764413 0.297527 0.0001100000000000545 -0.12085
C_ C_ 0.579398 0.135816 0.68398 0.15351
C_ C_ 0.578588 0.396733 0.681005 0.15351
C_ C_ 0.831284 0.140457 0.680381 0.15351
C_ C_ 0.830926 0.396114 0.680171 0.15351
C_ C_ 0.592554 0.174264 0.706028 -0.35079
C_ C_ 0.584097 0.433685 0.693193 -0.35079
C_ C_ 0.841278 0.178057 0.692623 -0.35079
C_ C_ 0.835806 0.433011 0.691986 -0.35079
C_ C_ 0.506788 0.0965322 0.779585 -0.12085
C_ C_ 0.506285 0.342404 0.777354 -0.12085
C_ C_ 0.756731 0.0950805 0.779565 -0.12085
C_ C_ 0.762662 0.346348 0.782441 -0.12085
C_ C_ 0.73651 0.0535093 0.699232 0.6956
C_ C_ 0.740494 0.304235 0.704715 0.6956
C_ C_ 0.989611 0.0523923 0.696246 0.6956
C_ C_ 0.985539 0.300864 0.700781 0.6956
C_ C_ 0.502008 0.064499 0.748788 -0.16651
C_ C_ 0.501405 0.310995 0.744948 -0.16651
C_ C_ 0.758883 0.0682208 0.744121 -0.16651
C_ C_ 0.759084 0.315603 0.750322 -0.16651
C_ C_ 0.541379 0.0567553 0.800042 -0.12085
C_ C_ 0.542512 0.302677 0.796988 -0.12085
C_ C_ 0.80199 0.0614149 0.795618 -0.12085
C_ C_ 0.793457 0.304326 0.802571 -0.12085
C_ C_ 0.527172 0.107106 0.822486 0.16698
C_ C_ 0.525436 0.351132 0.819326 0.16698
C_ C_ 0.776773 0.104442 0.820105 0.16698
C_ C_ 0.778643 0.354235 0.824707 0.16698
C_ C_ 0.561019 0.130439 0.882733 0.36401
C_ C_ 0.563014 0.377809 0.877789 0.36401
C_ C_ 0.811693 0.130942 0.881108 0.36401
C_ C_ 0.817973 0.381518 0.885061 0.36401
C_ C_ 0.543797 0.0874326 0.829978 0.16698
C_ C_ 0.543178 0.331453 0.828445 0.16698
C_ C_ 0.795058 0.0854713 0.828443 0.16698
C_ C_ 0.793565 0.333703 0.83412 0.16698
C_ C_ 0.520246 0.0446823 0.758897 -0.12085
C_ C_ 0.522655 0.292644 0.756141 -0.12085
C_ C_ 0.780878 0.0506547 0.755027 -0.12085
C_ C_ 0.773349 0.294829 0.762389 -0.12085
C_ C_ 0.590525 0.161792 0.91927 0.15351
C_ C_ 0.590618 0.406705 0.916568 0.15351
C_ C_ 0.837681 0.159555 0.920491 0.15351
C_ C_ 0.846863 0.409702 0.922327 0.15351
C_ C_ 0.629332 0.188973 0.910335 -0.35079
C_ C_ 0.631838 0.431299 0.908567 -0.35079
C_ C_ 0.876206 0.186684 0.91256 -0.35079
C_ C_ 0.881412 0.430349 0.904092 -0.35079
C_ C_ 0.667313 0.152524 0.974835 -0.12085
C_ C_ 0.674277 0.40411 0.976137 -0.12085
C_ C_ 0.918075 0.15151 0.972181 -0.12085
C_ C_ 0.922311 0.39648 0.974427 -0.12085
C_ C_ 0.692578 0.197806 0.551225 0.6956
C_ C_ 0.686258 0.445097 0.551112 0.6956
C_ C_ 0.942404 0.19404 0.55251 0.6956
C_ C_ 0.939495 0.440708 0.551875 0.6956
C_ C_ 0.70176 0.183736 0.507077 -0.16651
C_ C_ 0.699154 0.433859 0.507609 -0.16651
C_ C_ 0.954483 0.182965 0.508928 -0.16651
C_ C_ 0.947164 0.4319 0.505786 -0.16651
C_ C_ 0.492484 0.190142 0.95845 -0.12085
C_ C_ 0.493854 0.442264 0.957258 -0.12085
C_ C_ 0.740413 0.194009 0.957334 -0.12085
C_ C_ 0.748658 0.443065 0.959009 -0.12085
C_ C_ 0.681104 0.143962 0.935926 0.16698
C_ C_ 0.68702 0.390918 0.93624 0.16698
C_ C_ 0.93073 0.14343 0.931314 0.16698
C_ C_ 0.933702 0.388693 0.93197 0.16698
C_ C_ 0.681241 0.130402 0.867989 0.36401
C_ C_ 0.68758 0.378261 0.869207 0.36401
C_ C_ 0.934573 0.12753 0.864456 0.36401
C_ C_ 0.933122 0.374692 0.865787 0.36401
C_ C_ 0.717029 0.163438 0.926334 0.16698
C_ C_ 0.724752 0.412338 0.928632 0.16698
C_ C_ 0.967146 0.163661 0.924255 0.16698
C_ C_ 0.968803 0.411948 0.922073 0.16698
C_ C_ 0.739732 0.201562 0.498299 -0.12085
C_ C_ 0.734443 0.455057 0.497474 -0.12085
C_ C_ 0.99393 0.202824 0.501199 -0.12085
C_ C_ 0.985137 0.450867 0.497249 -0.12085
C_ C_ 0.668055 0.118197 0.821224 0.15351
C_ C_ 0.67614 0.362297 0.821013 0.15351
C_ C_ 0.922473 0.112123 0.816928 0.15351
C_ C_ 0.920358 0.35619 0.818698 0.15351
C_ C_ 0.659896 0.080769 0.805072 -0.35079
C_ C_ 0.672428 0.326044 0.806766 -0.35079
C_ C_ 0.913485 0.0742859 0.798515 -0.35079
C_ C_ 0.912506 0.318458 0.805276 -0.35079
N_ N_ 0.713592 0.116927 0.642613 -0.51457
N_ N_ 0.709115 0.36542 0.648782 -0.51457
N_ N_ 0.952071 0.113606 0.650362 -0.51457
N_ N_ 0.965338 0.365641 0.645318 -0.51457
N_ N_ 0.686562 0.152712 0.630706 -0.51457
N_ N_ 0.683331 0.400736 0.632661 -0.51457
N_ N_ 0.933736 0.151692 0.630118 -0.51457
N_ N_ 0.937629 0.39935 0.631144 -0.51457
N_ N_ 0.590014 0.132398 0.60552 -0.51457
N_ N_ 0.590161 0.386161 0.603237 -0.51457
N_ N_ 0.844428 0.132257 0.601664 -0.51457
N_ N_ 0.844085 0.384562 0.603844 -0.51457
N_ N_ 0.526197 0.0970144 0.618292 -0.51457
N_ N_ 0.530644 0.348664 0.618025 -0.51457
N_ N_ 0.782784 0.0952159 0.615607 -0.51457
N_ N_ 0.785111 0.347661 0.618081 -0.51457
N_ N_ 0.53891 0.13635 0.856155 -0.51457
N_ N_ 0.538056 0.381763 0.851825 -0.51457
N_ N_ 0.789999 0.134715 0.851388 -0.51457
N_ N_ 0.794713 0.385222 0.856584 -0.51457
N_ N_ 0.567077 0.101664 0.867829 -0.51457
N_ N_ 0.568505 0.348623 0.864536 -0.51457
N_ N_ 0.813824 0.0992754 0.868195 -0.51457
N_ N_ 0.817591 0.34974 0.871305 -0.51457
N_ N_ 0.657261 0.121262 0.897138 -0.51457
N_ N_ 0.663811 0.3691 0.899243 -0.51457
N_ N_ 0.908645 0.119741 0.892729 -0.51457
N_ N_ 0.909635 0.363611 0.896309 -0.51457
N_ N_ 0.71757 0.156891 0.884068 -0.51457
N_ N_ 0.724789 0.404985 0.885595 -0.51457
N_ N_ 0.970191 0.156333 0.882455 -0.51457
N_ N_ 0.968677 0.403668 0.880876 -0.51457
O_ O_ 0.518543 0.231639 0.827712 -0.61362
O_ O_ 0.522171 0.478324 0.831378 -0.61362
O_ O_ 0.77312 0.228897 0.820187 -0.61362
O_ O_ 0.769443 0.478859 0.826572 -0.61362
O_ O_ 0.553867 0.220313 0.885871 -0.98607
O_ O_ 0.562478 0.468277 0.88468 -0.98607
O_ O_ 0.800204 0.216232 0.882325 -0.98607
O_ O_ 0.812611 0.468538 0.878973 -0.98607
O_ O_ 0.523076 0.18212 0.818915 -0.61362
O_ O_ 0.525595 0.426921 0.81315 -0.61362
O_ O_ 0.770129 0.177031 0.811958 -0.61362
O_ O_ 0.769858 0.427224 0.813262 -0.61362
O_ O_ 0.687931 0.081471 0.553978 -0.55956
O_ O_ 0.684539 0.326338 0.556327 -0.55956
O_ O_ 0.924459 0.0747175 0.560426 -0.55956
O_ O_ 0.925876 0.319092 0.562308 -0.55956
O_ O_ 0.540369 0.0301741 0.920006 -0.61362
O_ O_ 0.54554 0.281482 0.924052 -0.61362
O_ O_ 0.792838 0.0277246 0.923207 -0.61362
O_ O_ 0.791014 0.276285 0.919208 -0.61362
O_ O_ 0.59555 0.0372927 0.871994 -0.98607
O_ O_ 0.594869 0.288662 0.871328 -0.98607
O_ O_ 0.844737 0.0389466 0.87592 -0.98607
O_ O_ 0.844254 0.285874 0.86822 -0.98607
O_ O_ 0.594172 0.0815602 0.938822 -0.61362
O_ O_ 0.591378 0.337986 0.938149 -0.61362
O_ O_ 0.846422 0.0789474 0.936506 -0.61362
O_ O_ 0.847464 0.325702 0.937377 -0.61362
O_ O_ 0.606133 0.127589 0.694509 -0.55956
O_ O_ 0.608891 0.394487 0.692057 -0.55956
O_ O_ 0.865076 0.1405 0.688647 -0.55956
O_ O_ 0.862289 0.394896 0.694697 -0.55956
O_ O_ 0.732833 0.0238939 0.673822 -0.61362
O_ O_ 0.736832 0.274697 0.678217 -0.61362
O_ O_ 0.974323 0.0202948 0.671265 -0.61362
O_ O_ 0.983551 0.272475 0.672225 -0.61362
O_ O_ 0.694988 0.0308443 0.610894 -0.98607
O_ O_ 0.699994 0.282781 0.619201 -0.98607
O_ O_ 0.939797 0.0312896 0.616528 -0.98607
O_ O_ 0.948082 0.284555 0.612203 -0.98607
O_ O_ 0.728407 0.0742021 0.684335 -0.61362
O_ O_ 0.737024 0.328235 0.691158 -0.61362
O_ O_ 0.980767 0.0742688 0.686319 -0.61362
O_ O_ 0.978531 0.323432 0.68851 -0.61362
O_ O_ 0.570368 0.177318 0.941556 -0.55956
O_ O_ 0.575165 0.426398 0.936641 -0.55956
O_ O_ 0.819652 0.17504 0.944244 -0.55956
O_ O_ 0.833018 0.430098 0.945048 -0.55956
O_ O_ 0.7183 0.22706 0.57789 -0.61362
O_ O_ 0.710955 0.472908 0.580197 -0.61362
O_ O_ 0.96707 0.222284 0.584354 -0.61362
O_ O_ 0.959986 0.471674 0.579906 -0.61362
O_ O_ 0.662903 0.215079 0.630197 -0.98607
O_ O_ 0.65371 0.46294 0.627464 -0.98607
O_ O_ 0.907368 0.215778 0.623977 -0.98607
O_ O_ 0.905455 0.462223 0.625308 -0.98607
O_ O_ 0.660703 0.176837 0.563943 -0.61362
O_ O_ 0.656179 0.423142 0.561842 -0.61362
O_ O_ 0.913363 0.169947 0.562388 -0.61362
O_ O_ 0.907893 0.418125 0.561952 -0.61362
O_ O_ 0.635504 0.118139 0.81013 -0.55956
O_ O_ 0.64302 0.359756 0.808708 -0.55956
O_ O_ 0.890514 0.11448 0.80745 -0.55956
O_ O_ 0.89038 0.359104 0.804943 -0.55956
Zn Zn 0.523141 0.671755 0.366572 0.91541
Zn Zn 0.526125 0.925522 0.366101 0.91541
Zn Zn 0.771194 0.671245 0.360537 0.91541
Zn Zn 0.77536 0.92406 0.365308 0.91541
Zn Zn 0.60224 0.578145 0.386962 0.91541
Zn Zn 0.606176 0.831834 0.388442 0.91541
Zn Zn 0.855685 0.582245 0.382242 0.91541
Zn Zn 0.857353 0.830304 0.384148 0.91541
Zn Zn 0.721918 0.575469 0.134979 0.91541
Zn Zn 0.727763 0.827998 0.141303 0.91541
Zn Zn 0.975763 0.575212 0.137308 0.91541
Zn Zn 0.973306 0.826018 0.135852 0.91541
Zn Zn 0.64433 0.67193 0.116743 0.91541
Zn Zn 0.645393 0.920361 0.118044 0.91541
Zn Zn 0.895824 0.667575 0.110377 0.91541
Zn Zn 0.897135 0.923466 0.115419 0.91541
Zn Zn 0.550175 0.500138 0.374551 1.11764
Zn Zn 0.552335 0.752191 0.37357 1.11764
Zn Zn 0.807444 0.502325 0.372853 1.11764
Zn Zn 0.803548 0.751315 0.373618 1.11764
Zn Zn 0.696741 1.00045 0.129158 1.11764
Zn Zn 0.697207 0.750189 0.126025 1.11764
Zn Zn 0.948597 1.000221108 0.12674 1.11764
Zn Zn 0.947801 0.747399 0.123774 1.11764
H_ H_ 0.751971 0.6381 0.2282 0.1146
H_ H_ 0.753313 0.893522 0.235472 0.1146
H_ H_ -0.0011360000000000259 0.639252 0.227885 0.1146
H_ H_ -0.0135915 0.884735 0.232185 0.1146
H_ H_ 0.691829 0.712332 0.200616 0.1146
H_ H_ 0.694962 0.962346 0.191736 0.1146
H_ H_ 0.950789 0.713376 0.186112 0.1146
H_ H_ 0.950959 0.963806 0.186839 0.1146
H_ H_ 0.727604 0.726442 0.272433 0.1146
H_ H_ 0.726264 0.979818 0.268946 0.1146
H_ H_ 0.983103 0.728378 0.258635 0.1146
H_ H_ 0.975402 0.978845 0.265939 0.1146
H_ H_ 0.68825 0.577331 0.0354654 0.42917
H_ H_ 0.681056 0.815725 0.0449936 0.42917
H_ H_ 0.91659 0.561304 0.0341835 0.42917
H_ H_ 0.941872 0.83005 0.0307565 0.42917
H_ H_ 0.644575 0.606057 0.0623682 0.1146
H_ H_ 0.647161 0.848002 0.0669469 0.1146
H_ H_ 0.892542 0.597149 0.0666113 0.1146
H_ H_ 0.899445 0.857209 0.0601893 0.1146
H_ H_ 0.627537 0.546567 0.0968532 0.1146
H_ H_ 0.600761 0.825135 0.114926 0.1146
H_ H_ 0.846429 0.577296 0.115405 0.1146
H_ H_ 0.857182 0.800204 0.0474202 0.1146
H_ H_ 0.601774 0.575385 0.108915 0.1146
H_ H_ 0.601325 0.788188 0.0726979 0.1146
H_ H_ 0.842988 0.542812 0.0687996 0.1146
H_ H_ 0.881872 0.795091 0.0890432 0.1146
H_ H_ 0.601687 0.548705 0.0525576 0.1146
H_ H_ 0.62798 0.80648 0.131959 0.1146
H_ H_ 0.87548 0.553952 0.121654 0.1146
H_ H_ 0.857727 0.822514 0.103281 0.1146
H_ H_ 0.575308 0.723304 0.398993 0.42917
H_ H_ 0.58023 0.976868 0.394972 0.42917
H_ H_ 0.821666 0.720832 0.400465 0.42917
H_ H_ 0.821915 0.973883 0.402214 0.42917
H_ H_ 0.601366 0.613061 0.0222302 0.1146
H_ H_ 0.612899 0.863842 0.0212223 0.1146
H_ H_ 0.84328 0.621454 0.0114522 0.1146
H_ H_ 0.858715 0.866744 0.0233323 0.1146
H_ H_ 0.725406 0.541332 0.0548222 0.1146
H_ H_ 0.726555 0.796823 0.0514448 0.1146
H_ H_ 0.98075 0.535177 0.0530182 0.1146
H_ H_ 0.974577 0.790666 0.0489421 0.1146
H_ H_ 0.750521 0.524416 0.480731 0.1146
H_ H_ 0.751963 0.774324 0.479622 0.1146
H_ H_ 0.99941012 0.514346 0.481344 0.1146
H_ H_ -0.00560566 0.771389 0.480035 0.1146
H_ H_ 0.621579 0.633129 0.185312 0.42917
H_ H_ 0.615915 0.890603 0.219927 0.42917
H_ H_ 0.878342 0.636701 0.198554 0.42917
H_ H_ 0.862497 0.855574 0.184689 0.42917
H_ H_ 0.55108 0.631683 0.200406 0.1146
H_ H_ 0.545785 0.879046 0.192384 0.1146
H_ H_ 0.798387 0.626783 0.194517 0.1146
H_ H_ 0.807275 0.875213 0.194694 0.1146
H_ H_ 0.611161 0.696613 0.186979 0.1146
H_ H_ 0.582293 0.939931 0.224634 0.1146
H_ H_ 0.817219 0.686292 0.193702 0.1146
H_ H_ 0.831417 0.932714 0.219811 0.1146
H_ H_ 0.55907 0.687383 0.194178 0.1146
H_ H_ 0.618625 0.943531 0.188566 0.1146
H_ H_ 0.840722 0.682061 0.236389 0.1146
H_ H_ 0.870548 0.923746 0.239074 0.1146
H_ H_ 0.594152 0.69188 0.231633 0.1146
H_ H_ 0.566207 0.932258 0.170246 0.1146
H_ H_ 0.866896 0.693058 0.196902 0.1146
H_ H_ 0.877405 0.941507 0.195415 0.1146
H_ H_ 0.612928 0.530022 0.355853 0.42917
H_ H_ 0.610891 0.781055 0.365702 0.42917
H_ H_ 0.868716 0.536689 0.35852 0.42917
H_ H_ 0.864695 0.780813 0.358827 0.42917
H_ H_ 0.492952 0.60784 0.276315 0.1146
H_ H_ 0.497512 0.863207 0.275322 0.1146
H_ H_ 0.747269 0.610564 0.270285 0.1146
H_ H_ 0.744352 0.860328 0.275968 0.1146
H_ H_ 0.542683 0.533712 0.313939 0.1146
H_ H_ 0.554384 0.789113 0.310353 0.1146
H_ H_ 0.80549 0.538563 0.306238 0.1146
H_ H_ 0.81031 0.79359 0.309118 0.1146
H_ H_ 0.512238 0.515592 0.237313 0.1146
H_ H_ 0.521119 0.772645 0.235868 0.1146
H_ H_ 0.772026 0.520504 0.229884 0.1146
H_ H_ 0.768211 0.771397 0.239593 0.1146
H_ H_ 0.551051 0.66128 0.467971 0.42917
H_ H_ 0.554624 0.917348 0.461311 0.42917
H_ H_ 0.813096 0.686133 0.459681 0.42917
H_ H_ 0.822094 0.930619 0.462836 0.42917
H_ H_ 0.596029 0.639576 0.441625 0.1146
H_ H_ 0.601198 0.897497 0.445448 0.1146
H_ H_ 0.847893 0.648745 0.438441 0.1146
H_ H_ 0.859545 0.903143 0.432989 0.1146
H_ H_ 0.651309 0.67978 0.407821 0.1146
H_ H_ 0.645264 0.950243 0.457021 0.1146
H_ H_ 0.891958 0.708628 0.440758 0.1146
H_ H_ 0.899905 0.92477 0.379996 0.1146
H_ H_ 0.635542 0.702798 0.450743 0.1146
H_ H_ 0.630404 0.961928 0.415694 0.1146
H_ H_ 0.869179 0.698059 0.3867 0.1146
H_ H_ 0.900696 0.961104 0.421825 0.1146
H_ H_ 0.614574 0.693508 0.396133 0.1146
H_ H_ 0.649062 0.933327 0.399164 0.1146
H_ H_ 0.9023 0.681922 0.398447 0.1146
H_ H_ 0.871459 0.943233 0.371766 0.1146
H_ H_ 0.664235 0.52162 0.103801 0.42917
H_ H_ 0.670244 0.782149 0.109393 0.42917
H_ H_ 0.923906 0.526396 0.0933713 0.42917
H_ H_ 0.923759 0.774739 0.0942413 0.42917
H_ H_ 0.644928 0.635897 0.486015 0.1146
H_ H_ 0.645899 0.884172 0.48052 0.1146
H_ H_ 0.887503 0.639676 0.473251 0.1146
H_ H_ 0.894118 0.893757 0.479227 0.1146
H_ H_ 0.525033 0.704231 0.449852 0.1146
H_ H_ 0.515512 0.967219 0.446977 0.1146
H_ H_ 0.765248 0.70918 0.443467 0.1146
H_ H_ 0.774366 0.959858 0.447784 0.1146
H_ H_ 0.49637 0.730186 0.0211456 0.1146
H_ H_ 0.499904 0.977244 0.020664 0.1146
H_ H_ 0.735046 0.733532 0.0106288 0.1146
H_ H_ 0.744641 0.980793 0.0204293 0.1146
H_ H_ 0.619997 0.624678 0.307695 0.42917
H_ H_ 0.62932 0.874394 0.316801 0.42917
H_ H_ 0.869781 0.615316 0.303859 0.42917
H_ H_ 0.876343 0.859364 0.292668 0.42917
H_ H_ 0.692859 0.627905 0.305657 0.1146
H_ H_ 0.705222 0.877706 0.306659 0.1146
H_ H_ 0.947321 0.630878 0.303716 0.1146
H_ H_ 0.951496 0.875578 0.310369 0.1146
H_ H_ 0.675459 0.569278 0.292541 0.1146
H_ H_ 0.668596 0.818836 0.270173 0.1146
H_ H_ 0.881374 0.561582 0.296248 0.1146
H_ H_ 0.917414 0.814256 0.270891 0.1146
H_ H_ 0.6383 0.570252 0.262154 0.1146
H_ H_ 0.63885 0.812461 0.310352 0.1146
H_ H_ 0.932718 0.569209 0.298304 0.1146
H_ H_ 0.88264 0.808983 0.305958 0.1146
H_ H_ 0.62808 0.562269 0.312056 0.1146
H_ H_ 0.690394 0.818002 0.316103 0.1146
H_ H_ 0.90742 0.576796 0.258529 0.1146
H_ H_ 0.936655 0.816063 0.31989 0.1146
H_ H_ 0.634281 0.718679 0.127241 0.42917
H_ H_ 0.634763 0.969726 0.139962 0.42917
H_ H_ 0.890873 0.717956 0.144256 0.42917
H_ H_ 0.886503 0.972733 0.133262 0.42917
C_ C_ 0.737326 0.653018 0.221493 -0.12085
C_ C_ 0.738951 0.907586 0.227406 -0.12085
C_ C_ 0.990834 0.655365 0.216981 -0.12085
C_ C_ 0.988151 0.90502 0.220898 -0.12085
C_ C_ 0.514559 0.697561 0.300658 0.6956
C_ C_ 0.515525 0.948516 0.297782 0.6956
C_ C_ 0.769349 0.698369 0.297221 0.6956
C_ C_ 0.762469 0.95105 0.300644 0.6956
C_ C_ 0.744814 0.68568 0.253875 -0.16651
C_ C_ 0.743549 0.939987 0.257048 -0.16651
C_ C_ 0.999252 0.688013 0.246937 -0.16651
C_ C_ 0.993567 0.936416 0.25435 -0.16651
C_ C_ 0.700966 0.694436 0.207547 -0.12085
C_ C_ 0.707107 0.947542 0.202601 -0.12085
C_ C_ 0.963608 0.698061 0.193544 -0.12085
C_ C_ 0.958154 0.946572 0.200776 -0.12085
C_ C_ 0.711901 0.642362 0.183784 0.16698
C_ C_ 0.717147 0.895728 0.187373 0.16698
C_ C_ 0.974859 0.646086 0.175239 0.16698
C_ C_ 0.970189 0.896532 0.178052 0.16698
C_ C_ 0.68039 0.620421 0.120688 0.36401
C_ C_ 0.684077 0.868906 0.124786 0.36401
C_ C_ 0.931293 0.616138 0.118823 0.36401
C_ C_ 0.934903 0.871177 0.119231 0.36401
C_ C_ 0.696533 0.664193 0.176641 0.16698
C_ C_ 0.69909 0.91401 0.178097 0.16698
C_ C_ 0.959699 0.665992 0.164029 0.16698
C_ C_ 0.953017 0.916117 0.172175 0.16698
C_ C_ 0.724971 0.704382 0.2464 -0.12085
C_ C_ 0.72718 0.95908 0.24516 -0.12085
C_ C_ 0.986701 0.709375 0.234327 -0.12085
C_ C_ 0.977817 0.958469 0.242785 -0.12085
C_ C_ 0.656942 0.593889 0.0811743 0.15351
C_ C_ 0.656322 0.837627 0.0905306 0.15351
C_ C_ 0.90153 0.586038 0.0867423 0.15351
C_ C_ 0.911386 0.844709 0.0772541 0.15351
C_ C_ 0.618476 0.563437 0.0855689 -0.35079
C_ C_ 0.621098 0.813279 0.102828 -0.35079
C_ C_ 0.863366 0.563109 0.0976542 -0.35079
C_ C_ 0.874541 0.813358 0.0798041 -0.35079
C_ C_ 0.571315 0.600707 0.026525 -0.12085
C_ C_ 0.583221 0.850577 0.0272709 -0.12085
C_ C_ 0.822335 0.599979 0.0216109 -0.12085
C_ C_ 0.827723 0.855274 0.028194 -0.12085
C_ C_ 0.568553 0.555592 0.452792 0.6956
C_ C_ 0.560669 0.803611 0.448167 0.6956
C_ C_ 0.820239 0.554503 0.448112 0.6956
C_ C_ 0.816389 0.806955 0.448369 0.6956
C_ C_ 0.55627 0.567365 0.496325 -0.16651
C_ C_ 0.550379 0.813573 0.492757 -0.16651
C_ C_ 0.811947 0.567266 0.492231 -0.16651
C_ C_ 0.805164 0.817613 0.492366 -0.16651
C_ C_ 0.751363 0.555931 0.0428146 -0.12085
C_ C_ 0.754315 0.812321 0.0465988 -0.12085
C_ C_ 0.00804135 0.553908 0.0449441 -0.12085
C_ C_ 0.00168636 0.806881 0.0404203 -0.12085
C_ C_ 0.560223 0.611667 0.0668081 0.16698
C_ C_ 0.56875 0.858482 0.0666208 0.16698
C_ C_ 0.814493 0.606823 0.0636707 0.16698
C_ C_ 0.815549 0.8643 0.0671669 0.16698
C_ C_ 0.562194 0.627772 0.135378 0.36401
C_ C_ 0.563775 0.872343 0.132258 0.36401
C_ C_ 0.812677 0.623409 0.131257 0.36401
C_ C_ 0.81603 0.875671 0.134417 0.36401
C_ C_ 0.525972 0.588245 0.0776196 0.16698
C_ C_ 0.531946 0.837255 0.0723166 0.16698
C_ C_ 0.777661 0.587991 0.0716324 0.16698
C_ C_ 0.778443 0.843077 0.0758533 0.16698
C_ C_ 0.517832 0.545374 0.506579 -0.12085
C_ C_ 0.512711 0.794729 0.503739 -0.12085
C_ C_ 0.773136 0.548005 0.502873 -0.12085
C_ C_ 0.770122 0.797146 0.503545 -0.12085
C_ C_ 0.574394 0.642427 0.182434 0.15351
C_ C_ 0.573678 0.890243 0.179546 0.15351
C_ C_ 0.824861 0.638193 0.179985 0.15351
C_ C_ 0.833842 0.884943 0.179805 0.15351
C_ C_ 0.583249 0.68119 0.198019 -0.35079
C_ C_ 0.585331 0.928015 0.191106 -0.35079
C_ C_ 0.838936 0.676733 0.20118 -0.35079
C_ C_ 0.854886 0.923147 0.208342 -0.35079
C_ C_ 0.50345 0.591244 0.281376 -0.12085
C_ C_ 0.510464 0.847007 0.282994 -0.12085
C_ C_ 0.757214 0.592562 0.277536 -0.12085
C_ C_ 0.761853 0.846528 0.280294 -0.12085
C_ C_ 0.732262 0.550915 0.202138 0.6956
C_ C_ 0.738508 0.804118 0.203294 0.6956
C_ C_ 0.981248 0.549794 0.202893 0.6956
C_ C_ 0.987499 0.802059 0.200808 0.6956
C_ C_ 0.499557 0.560532 0.249166 -0.16651
C_ C_ 0.5056 0.814582 0.248894 -0.16651
C_ C_ 0.751616 0.560754 0.246161 -0.16651
C_ C_ 0.756692 0.815685 0.248668 -0.16651
C_ C_ 0.531576 0.547996 0.300538 -0.12085
C_ C_ 0.546992 0.806236 0.299888 -0.12085
C_ C_ 0.792776 0.554063 0.297099 -0.12085
C_ C_ 0.794631 0.807136 0.301819 -0.12085
C_ C_ 0.524816 0.601248 0.32166 0.16698
C_ C_ 0.534073 0.857042 0.323428 0.16698
C_ C_ 0.774236 0.600866 0.319973 0.16698
C_ C_ 0.781387 0.85614 0.322148 0.16698
C_ C_ 0.564249 0.626108 0.379087 0.36401
C_ C_ 0.568665 0.881049 0.38358 0.36401
C_ C_ 0.815929 0.630918 0.375522 0.36401
C_ C_ 0.820443 0.883142 0.380086 0.36401
C_ C_ 0.53818 0.579843 0.331114 0.16698
C_ C_ 0.550324 0.836162 0.33055 0.16698
C_ C_ 0.792387 0.581744 0.329084 0.16698
C_ C_ 0.797712 0.835886 0.331785 0.16698
C_ C_ 0.512776 0.539287 0.261222 -0.12085
C_ C_ 0.521573 0.793511 0.260042 -0.12085
C_ C_ 0.773771 0.544303 0.255629 -0.12085
C_ C_ 0.772875 0.79593 0.260843 -0.12085
C_ C_ 0.587107 0.65183 0.422116 0.15351
C_ C_ 0.590799 0.908705 0.424169 0.15351
C_ C_ 0.839457 0.659618 0.416304 0.15351
C_ C_ 0.848262 0.913655 0.415128 0.15351
C_ C_ 0.623813 0.68297 0.417629 -0.35079
C_ C_ 0.6299 0.939341 0.423883 -0.35079
C_ C_ 0.877823 0.687854 0.410875 -0.35079
C_ C_ 0.882735 0.937711 0.397634 -0.35079
C_ C_ 0.674258 0.650171 0.478613 -0.12085
C_ C_ 0.672347 0.902 0.475102 -0.12085
C_ C_ 0.920407 0.650163 0.472881 -0.12085
C_ C_ 0.923783 0.903927 0.476327 -0.12085
C_ C_ 0.678213 0.694749 0.0493871 0.6956
C_ C_ 0.679519 0.947512 0.052763 0.6956
C_ C_ 0.93813 0.693513 0.0511245 0.6956
C_ C_ 0.939434 0.947854 0.0527271 0.6956
C_ C_ 0.687431 0.683099 0.00451255 -0.16651
C_ C_ 0.688932 0.936614 0.00704088 -0.16651
C_ C_ 0.949916 0.683394 0.00858497 -0.16651
C_ C_ 0.948791 0.937934 0.00810171 -0.16651
C_ C_ 0.495982 0.690145 0.456019 -0.12085
C_ C_ 0.497824 0.947178 0.457836 -0.12085
C_ C_ 0.745804 0.690007 0.455759 -0.12085
C_ C_ 0.746331 0.942914 0.455868 -0.12085
C_ C_ 0.685573 0.637428 0.437128 0.16698
C_ C_ 0.685372 0.892029 0.437214 0.16698
C_ C_ 0.93473 0.641198 0.433337 0.16698
C_ C_ 0.934999 0.892458 0.435842 0.16698
C_ C_ 0.682572 0.624379 0.368274 0.36401
C_ C_ 0.688478 0.876579 0.36898 0.36401
C_ C_ 0.937999 0.629162 0.366467 0.36401
C_ C_ 0.93969 0.87439 0.370557 0.36401
C_ C_ 0.722063 0.65852 0.427494 0.16698
C_ C_ 0.721108 0.912557 0.42744 0.16698
C_ C_ 0.972806 0.662488 0.42649 0.16698
C_ C_ 0.971444 0.914843 0.427173 0.16698
C_ C_ 0.722094 0.707109 0.992435 -0.12085
C_ C_ 0.725614 0.958053 0.996955 -0.12085
C_ C_ 0.98428 0.70755 0.997018 -0.12085
C_ C_ 0.984664 0.959069 0.996292 -0.12085
C_ C_ 0.665866 0.614331 0.320674 0.15351
C_ C_ 0.67757 0.863111 0.321152 0.15351
C_ C_ 0.922532 0.615287 0.318281 0.15351
C_ C_ 0.925155 0.859521 0.323289 0.15351
C_ C_ 0.650298 0.578016 0.295835 -0.35079
C_ C_ 0.668803 0.826263 0.304418 -0.35079
C_ C_ 0.911966 0.578774 0.292084 -0.35079
C_ C_ 0.915706 0.822314 0.304807 -0.35079
N_ N_ 0.704571 0.61502 0.148165 -0.51457
N_ N_ 0.708319 0.866468 0.154679 -0.51457
N_ N_ 0.956653 0.613614 0.146695 -0.51457
N_ N_ 0.959195 0.866952 0.146353 -0.51457
N_ N_ 0.676539 0.65103 0.137327 -0.51457
N_ N_ 0.676297 0.897341 0.139098 -0.51457
N_ N_ 0.930312 0.647912 0.130496 -0.51457
N_ N_ 0.932576 0.902764 0.133904 -0.51457
N_ N_ 0.584958 0.637388 0.104992 -0.51457
N_ N_ 0.589869 0.880963 0.104391 -0.51457
N_ N_ 0.837231 0.631475 0.0998199 -0.51457
N_ N_ 0.838736 0.886558 0.104249 -0.51457
N_ N_ 0.526697 0.597671 0.118689 -0.51457
N_ N_ 0.527768 0.845548 0.113712 -0.51457
N_ N_ 0.775666 0.596692 0.113785 -0.51457
N_ N_ 0.778593 0.850234 0.118173 -0.51457
N_ N_ 0.540403 0.631707 0.35377 -0.51457
N_ N_ 0.543785 0.885936 0.356409 -0.51457
N_ N_ 0.79015 0.633252 0.349244 -0.51457
N_ N_ 0.793771 0.886525 0.354104 -0.51457
N_ N_ 0.564983 0.594494 0.365512 -0.51457
N_ N_ 0.572894 0.851346 0.368858 -0.51457
N_ N_ 0.820058 0.600609 0.363015 -0.51457
N_ N_ 0.821916 0.85206 0.369435 -0.51457
N_ N_ 0.660038 0.615304 0.399815 -0.51457
N_ N_ 0.662491 0.867949 0.399706 -0.51457
N_ N_ 0.912044 0.619005 0.394377 -0.51457
N_ N_ 0.913183 0.866544 0.399537 -0.51457
N_ N_ 0.721983 0.649556 0.384431 -0.51457
N_ N_ 0.724064 0.904503 0.386436 -0.51457
N_ N_ 0.973436 0.657188 0.385086 -0.51457
N_ N_ 0.976111 0.903099 0.385783 -0.51457
O_ O_ 0.522 0.728315 0.324288 -0.61362
O_ O_ 0.5253 0.979799 0.322016 -0.61362
O_ O_ 0.773389 0.727908 0.324131 -0.61362
O_ O_ 0.77306 0.982512 0.324387 -0.61362
O_ O_ 0.554147 0.717207 0.382148 -0.98607
O_ O_ 0.55744 0.970571 0.382641 -0.98607
O_ O_ 0.802917 0.715183 0.380415 -0.98607
O_ O_ 0.804604 0.967926 0.381963 -0.98607
O_ O_ 0.523179 0.676264 0.31456 -0.61362
O_ O_ 0.519453 0.925319 0.311181 -0.61362
O_ O_ 0.777706 0.676467 0.310171 -0.61362
O_ O_ 0.772766 0.929919 0.312449 -0.61362
O_ O_ 0.677907 0.580586 0.0580093 -0.55956
O_ O_ 0.673785 0.820442 0.069442 -0.55956
O_ O_ 0.915625 0.56814 0.0604049 -0.55956
O_ O_ 0.933014 0.832723 0.0545532 -0.55956
O_ O_ 0.545646 0.52311 0.427926 -0.61362
O_ O_ 0.535905 0.774058 0.418967 -0.61362
O_ O_ 0.795126 0.524792 0.421537 -0.61362
O_ O_ 0.793906 0.777622 0.420683 -0.61362
O_ O_ 0.593847 0.534102 0.365663 -0.98607
O_ O_ 0.592796 0.786901 0.375003 -0.98607
O_ O_ 0.848469 0.538616 0.368604 -0.98607
O_ O_ 0.845359 0.785613 0.367275 -0.98607
O_ O_ 0.594954 0.578505 0.439362 -0.61362
O_ O_ 0.593748 0.826937 0.439535 -0.61362
O_ O_ 0.847075 0.578722 0.435366 -0.61362
O_ O_ 0.846308 0.830649 0.43817 -0.61362
O_ O_ 0.603636 0.638273 0.195214 -0.55956
O_ O_ 0.602854 0.889846 0.197666 -0.55956
O_ O_ 0.853477 0.631352 0.18937 -0.55956
O_ O_ 0.857941 0.872943 0.18566 -0.55956
O_ O_ 0.727768 0.522088 0.174196 -0.61362
O_ O_ 0.728305 0.77178 0.178154 -0.61362
O_ O_ 0.975872 0.519279 0.177057 -0.61362
O_ O_ 0.981845 0.771985 0.173263 -0.61362
O_ O_ 0.687835 0.530712 0.117644 -0.98607
O_ O_ 0.693192 0.784341 0.119807 -0.98607
O_ O_ 0.942067 0.529995 0.11261 -0.98607
O_ O_ 0.94433 0.781863 0.113278 -0.98607
O_ O_ 0.729784 0.575311 0.188911 -0.61362
O_ O_ 0.729117 0.825303 0.19122 -0.61362
O_ O_ 0.978768 0.572989 0.18956 -0.61362
O_ O_ 0.9828 0.824953 0.187436 -0.61362
O_ O_ 0.56361 0.661681 0.445105 -0.55956
O_ O_ 0.568047 0.919855 0.441705 -0.55956
O_ O_ 0.818359 0.675005 0.434435 -0.55956
O_ O_ 0.83053 0.928173 0.437748 -0.55956
O_ O_ 0.700293 0.726026 0.0742066 -0.61362
O_ O_ 0.70407 0.976788 0.0783231 -0.61362
O_ O_ 0.961551 0.724232 0.0790574 -0.61362
O_ O_ 0.961177 0.976712 0.0808102 -0.61362
O_ O_ 0.654724 0.71469 0.124006 -0.98607
O_ O_ 0.653086 0.964514 0.131976 -0.98607
O_ O_ 0.908519 0.713248 0.131615 -0.98607
O_ O_ 0.904598 0.966128 0.127283 -0.98607
O_ O_ 0.657556 0.670604 0.0662305 -0.61362
O_ O_ 0.653586 0.924178 0.0670209 -0.61362
O_ O_ 0.902933 0.675076 0.0599463 -0.61362
O_ O_ 0.912132 0.924711 0.0651004 -0.61362
O_ O_ 0.640721 0.626409 0.318564 -0.55956
O_ O_ 0.647248 0.866911 0.31 -0.55956
O_ O_ 0.894507 0.622486 0.312047 -0.55956
O_ O_ 0.895787 0.865065 0.312228 -0.55956
Zn Zn 0.521923 0.670594 0.860655 0.91541
Zn Zn 0.520812 0.925063 0.865999 0.91541
Zn Zn 0.770731 0.673874 0.865941 0.91541
Zn Zn 0.77159 0.923679 0.866017 0.91541
Zn Zn 0.59951 0.578013 0.88753 0.91541
Zn Zn 0.602348 0.832259 0.884386 0.91541
Zn Zn 0.851131 0.580082 0.887594 0.91541
Zn Zn 0.853833 0.833683 0.890417 0.91541
Zn Zn 0.727903 0.578145 0.635163 0.91541
Zn Zn 0.726845 0.827347 0.637801 0.91541
Zn Zn 0.981169 0.576687 0.638086 0.91541
Zn Zn 0.975502 0.827004 0.635556 0.91541
Zn Zn 0.648836 0.669613 0.618824 0.91541
Zn Zn 0.645574 0.918402 0.611922 0.91541
Zn Zn 0.898093 0.671247 0.614027 0.91541
Zn Zn 0.89369 0.920643 0.612939 0.91541
Zn Zn 0.553094 0.500248 0.879302 1.11764
Zn Zn 0.550685 0.749693 0.87405 1.11764
Zn Zn 0.804518 0.50212 0.876142 1.11764
Zn Zn 0.801357 0.755577 0.880443 1.11764
Zn Zn 0.699889 -0.0006549999999999612 0.625342 1.11764
Zn Zn 0.699649 0.747362 0.627269 1.11764
Zn Zn 0.941857 0.996241 0.622073 1.11764
Zn Zn 0.950086 0.748708 0.625744 1.11764
H_ H_ 0.760499 0.644966 0.725659 0.1146
H_ H_ 0.74415 0.88816 0.732599 0.1146
H_ H_ 0.000564106 0.634976 0.724676 0.1146
H_ H_ 0.00533882 0.890449 0.72302 0.1146
H_ H_ 0.684964 0.707923 0.699737 0.1146
H_ H_ 0.704086 0.966591 0.690879 0.1146
H_ H_ 0.941008 0.704686 0.695639 0.1146
H_ H_ 0.932688 0.955234 0.700362 0.1146
H_ H_ 0.719924 0.725292 0.771178 0.1146
H_ H_ 0.737829 0.985647 0.760492 0.1146
H_ H_ 0.979491 0.725796 0.764656 0.1146
H_ H_ 0.97278 0.975368 0.768799 0.1146
H_ H_ 0.679631 0.561702 0.541386 0.42917
H_ H_ 0.702833 0.826486 0.5401 0.42917
H_ H_ 0.962967 0.591929 0.540687 0.42917
H_ H_ 0.948892 0.827686 0.549259 0.42917
H_ H_ 0.650391 0.60375 0.563114 0.1146
H_ H_ 0.666302 0.861275 0.550698 0.1146
H_ H_ 0.906467 0.606033 0.556268 0.1146
H_ H_ 0.899648 0.85536 0.559366 0.1146
H_ H_ 0.601324 0.573128 0.606818 0.1146
H_ H_ 0.609225 0.806088 0.541944 0.1146
H_ H_ 0.887228 0.552247 0.597003 0.1146
H_ H_ 0.84681 0.821537 0.599192 0.1146
H_ H_ 0.605608 0.542267 0.559161 0.1146
H_ H_ 0.630465 0.801315 0.589881 0.1146
H_ H_ 0.857239 0.570491 0.581818 0.1146
H_ H_ 0.85839 0.790315 0.55668 0.1146
H_ H_ 0.629966 0.549589 0.615489 0.1146
H_ H_ 0.607653 0.828346 0.598946 0.1146
H_ H_ 0.866704 0.541452 0.543903 0.1146
H_ H_ 0.877338 0.802133 0.610931 0.1146
H_ H_ 0.57024 0.723092 0.904106 0.42917
H_ H_ 0.581484 0.972838 0.891853 0.42917
H_ H_ 0.819521 0.723167 0.904456 0.42917
H_ H_ 0.82037 0.97298 0.90747 0.42917
H_ H_ 0.610243 0.612431 0.526193 0.1146
H_ H_ 0.603447 0.861681 0.514146 0.1146
H_ H_ 0.864539 0.613279 0.518998 0.1146
H_ H_ 0.850349 0.867781 0.512957 0.1146
H_ H_ 0.731776 0.540639 0.548944 0.1146
H_ H_ 0.734834 0.787913 0.553051 0.1146
H_ H_ 0.979888 0.53391 0.552015 0.1146
H_ H_ 0.981474 0.786155 0.552699 0.1146
H_ H_ 0.747072 0.517365 0.980308 0.1146
H_ H_ 0.746993 0.777988 0.98223 0.1146
H_ H_ -0.00518799999999997 0.523471 0.978512 0.1146
H_ H_ 0.992639 0.771618 0.97603 0.1146
H_ H_ 0.615452 0.614405 0.678778 0.42917
H_ H_ 0.611284 0.861525 0.679846 0.42917
H_ H_ 0.872457 0.631601 0.70546 0.42917
H_ H_ 0.866881 0.90938 0.718277 0.42917
H_ H_ 0.551793 0.62514 0.699201 0.1146
H_ H_ 0.550602 0.872801 0.691484 0.1146
H_ H_ 0.804811 0.629196 0.695151 0.1146
H_ H_ 0.795736 0.883347 0.693951 0.1146
H_ H_ 0.618527 0.690989 0.693492 0.1146
H_ H_ 0.570736 0.937144 0.698055 0.1146
H_ H_ 0.825283 0.689592 0.669855 0.1146
H_ H_ 0.84806 0.951752 0.678869 0.1146
H_ H_ 0.570143 0.685188 0.698055 0.1146
H_ H_ 0.60362 0.931967 0.734654 0.1146
H_ H_ 0.830591 0.691436 0.723204 0.1146
H_ H_ 0.792086 0.930031 0.664641 0.1146
H_ H_ 0.598244 0.680946 0.738849 0.1146
H_ H_ 0.620173 0.939052 0.688847 0.1146
H_ H_ 0.872352 0.69362 0.700603 0.1146
H_ H_ 0.818976 0.943017 0.722179 0.1146
H_ H_ 0.61225 0.533139 0.882989 0.42917
H_ H_ 0.610265 0.781818 0.864044 0.42917
H_ H_ 0.858871 0.532223 0.854814 0.42917
H_ H_ 0.860103 0.784044 0.861344 0.42917
H_ H_ 0.493989 0.607151 0.77137 0.1146
H_ H_ 0.497184 0.859798 0.768219 0.1146
H_ H_ 0.747316 0.611787 0.76766 0.1146
H_ H_ 0.769998 0.868524 0.767528 0.1146
H_ H_ 0.554914 0.537325 0.813214 0.1146
H_ H_ 0.560106 0.794139 0.806484 0.1146
H_ H_ 0.795815 0.536502 0.809168 0.1146
H_ H_ 0.805506 0.789536 0.811768 0.1146
H_ H_ 0.524374 0.518895 0.739705 0.1146
H_ H_ 0.524458 0.772483 0.738321 0.1146
H_ H_ 0.773593 0.524622 0.73688 0.1146
H_ H_ 0.775903 0.773042 0.737099 0.1146
H_ H_ 0.566201 0.683334 0.967409 0.42917
H_ H_ 0.557392 0.936939 0.954836 0.42917
H_ H_ 0.789488 0.659845 0.956355 0.42917
H_ H_ 0.811031 0.933072 0.967089 0.42917
H_ H_ 0.603228 0.649145 0.937722 0.1146
H_ H_ 0.596963 0.902475 0.938295 0.1146
H_ H_ 0.840182 0.641206 0.945549 0.1146
H_ H_ 0.84361 0.897014 0.947041 0.1146
H_ H_ 0.645351 0.70611 0.939344 0.1146
H_ H_ 0.645187 0.957544 0.928674 0.1146
H_ H_ 0.865094 0.706064 0.921985 0.1146
H_ H_ 0.887843 0.956628 0.946311 0.1146
H_ H_ 0.616976 0.698667 0.888668 0.1146
H_ H_ 0.622602 0.944518 0.875624 0.1146
H_ H_ 0.885754 0.681445 0.896457 0.1146
H_ H_ 0.866614 0.946641 0.892932 0.1146
H_ H_ 0.648363 0.677973 0.893616 0.1146
H_ H_ 0.641896 0.919297 0.886921 0.1146
H_ H_ 0.889066 0.694687 0.955998 0.1146
H_ H_ 0.895477 0.92735 0.903356 0.1146
H_ H_ 0.677024 0.526749 0.595742 0.42917
H_ H_ 0.67932 0.777208 0.598115 0.42917
H_ H_ 0.930869 0.52738 0.600475 0.42917
H_ H_ 0.921141 0.777626 0.606453 0.42917
H_ H_ 0.642293 0.630125 0.980455 0.1146
H_ H_ 0.63193 0.890562 0.976413 0.1146
H_ H_ 0.900304 0.632225 0.987013 0.1146
H_ H_ 0.895744 0.891741 0.983185 0.1146
H_ H_ 0.517473 0.710885 0.946809 0.1146
H_ H_ 0.510383 0.964643 0.945479 0.1146
H_ H_ 0.756456 0.71265 0.939946 0.1146
H_ H_ 0.75712 0.969504 0.947384 0.1146
H_ H_ 0.503431 0.725556 0.520126 0.1146
H_ H_ 0.507952 0.979065 0.525432 0.1146
H_ H_ 0.757832 0.726834 0.517394 0.1146
H_ H_ 0.753365 0.977167 0.519951 0.1146
H_ H_ 0.621479 0.612932 0.794473 0.42917
H_ H_ 0.635305 0.876321 0.797829 0.42917
H_ H_ 0.880257 0.629039 0.81552 0.42917
H_ H_ 0.877525 0.869311 0.816273 0.42917
H_ H_ 0.694214 0.621772 0.806112 0.1146
H_ H_ 0.698579 0.872023 0.806829 0.1146
H_ H_ 0.946001 0.624812 0.807962 0.1146
H_ H_ 0.948698 0.870809 0.806673 0.1146
H_ H_ 0.682791 0.567619 0.8025 0.1146
H_ H_ 0.637679 0.805664 0.820144 0.1146
H_ H_ 0.930571 0.565792 0.820218 0.1146
H_ H_ 0.925605 0.815391 0.842401 0.1146
H_ H_ 0.645835 0.563166 0.762881 0.1146
H_ H_ 0.685958 0.814479 0.811365 0.1146
H_ H_ 0.915885 0.565878 0.768814 0.1146
H_ H_ 0.93115 0.807462 0.78494 0.1146
H_ H_ 0.63236 0.554849 0.812855 0.1146
H_ H_ 0.657241 0.81094 0.770851 0.1146
H_ H_ 0.877144 0.555621 0.79869 0.1146
H_ H_ 0.886332 0.803151 0.804753 0.1146
H_ H_ 0.637387 0.720862 0.632619 0.42917
H_ H_ 0.644183 0.97122 0.644028 0.42917
H_ H_ 0.890726 0.720823 0.636441 0.42917
H_ H_ 0.876918 0.965506 0.620062 0.42917
C_ C_ 0.738816 0.655585 0.724015 -0.12085
C_ C_ 0.734699 0.904315 0.725018 -0.12085
C_ C_ 0.9877 0.649627 0.721332 -0.12085
C_ C_ 0.99062 0.905204 0.719898 -0.12085
C_ C_ 0.509454 0.694126 0.799229 0.6956
C_ C_ 0.512038 0.950493 0.800532 0.6956
C_ C_ 0.761943 0.697862 0.802696 0.6956
C_ C_ 0.758776 0.948185 0.7993 0.6956
C_ C_ 0.741191 0.686161 0.757009 -0.16651
C_ C_ 0.741735 0.937111 0.754144 -0.16651
C_ C_ 0.989892 0.679859 0.75497 -0.16651
C_ C_ 0.991875 0.933667 0.752327 -0.16651
C_ C_ 0.702892 0.695132 0.704788 -0.12085
C_ C_ 0.709375 0.948566 0.699957 -0.12085
C_ C_ 0.952978 0.689657 0.703257 -0.12085
C_ C_ 0.950919 0.944138 0.70364 -0.12085
C_ C_ 0.720132 0.646304 0.681484 0.16698
C_ C_ 0.715574 0.894531 0.683545 0.16698
C_ C_ 0.962979 0.638975 0.680915 0.16698
C_ C_ 0.965908 0.89477 0.681418 0.16698
C_ C_ 0.68346 0.61946 0.624843 0.36401
C_ C_ 0.686695 0.871811 0.617048 0.36401
C_ C_ 0.933379 0.617651 0.619221 0.36401
C_ C_ 0.930853 0.869017 0.620673 0.36401
C_ C_ 0.704084 0.666844 0.673357 0.16698
C_ C_ 0.702001 0.916194 0.672085 0.16698
C_ C_ 0.944334 0.658165 0.674521 0.16698
C_ C_ 0.948792 0.915306 0.672959 0.16698
C_ C_ 0.721063 0.704238 0.74604 -0.12085
C_ C_ 0.731723 0.959953 0.739818 -0.12085
C_ C_ 0.973107 0.700549 0.744061 -0.12085
C_ C_ 0.973195 0.953885 0.743374 -0.12085
C_ C_ 0.65818 0.590643 0.584405 0.15351
C_ C_ 0.666632 0.847039 0.57393 0.15351
C_ C_ 0.917163 0.592875 0.574032 0.15351
C_ C_ 0.907148 0.840455 0.57949 0.15351
C_ C_ 0.62145 0.561199 0.591334 -0.35079
C_ C_ 0.625577 0.81882 0.575596 -0.35079
C_ C_ 0.880887 0.562616 0.573596 -0.35079
C_ C_ 0.869059 0.81235 0.586818 -0.35079
C_ C_ 0.580645 0.597018 0.529213 -0.12085
C_ C_ 0.575633 0.846003 0.523224 -0.12085
C_ C_ 0.834984 0.598883 0.524426 -0.12085
C_ C_ 0.83091 0.84941 0.525028 -0.12085
C_ C_ 0.558908 0.553911 0.952471 0.6956
C_ C_ 0.567773 0.808589 0.949259 0.6956
C_ C_ 0.810773 0.55578 0.948238 0.6956
C_ C_ 0.810515 0.812063 0.949743 0.6956
C_ C_ 0.548082 0.567639 0.996042 -0.16651
C_ C_ 0.558799 0.818502 0.993295 -0.16651
C_ C_ 0.799423 0.56602 0.992468 -0.16651
C_ C_ 0.801516 0.824454 0.994221 -0.16651
C_ C_ 0.760232 0.557954 0.542592 -0.12085
C_ C_ 0.75932 0.8057 0.544215 -0.12085
C_ C_ 1.0073163 0.551006 0.543248 -0.12085
C_ C_ 0.00282747 0.805789 0.541733 -0.12085
C_ C_ 0.567589 0.607712 0.56841 0.16698
C_ C_ 0.562442 0.858021 0.563277 0.16698
C_ C_ 0.820141 0.609227 0.56484 0.16698
C_ C_ 0.818988 0.857422 0.565811 0.16698
C_ C_ 0.565109 0.624661 0.635792 0.36401
C_ C_ 0.561102 0.876451 0.629433 0.36401
C_ C_ 0.815814 0.627248 0.632122 0.36401
C_ C_ 0.812617 0.876464 0.631577 0.36401
C_ C_ 0.530841 0.586875 0.575696 0.16698
C_ C_ 0.5262 0.838687 0.570926 0.16698
C_ C_ 0.783532 0.589272 0.57253 0.16698
C_ C_ 0.783138 0.836009 0.57351 0.16698
C_ C_ 0.513861 0.543556 0.0086755 -0.12085
C_ C_ 0.521312 0.796948 1.00183447 -0.12085
C_ C_ 0.762883 0.543811 0.00261702 -0.12085
C_ C_ 0.764651 0.803371 0.00505641 -0.12085
C_ C_ 0.577791 0.636609 0.68235 0.15351
C_ C_ 0.576217 0.886991 0.677289 0.15351
C_ C_ 0.829589 0.642955 0.679594 0.15351
C_ C_ 0.819191 0.898016 0.677768 0.15351
C_ C_ 0.590478 0.674466 0.70456 -0.35079
C_ C_ 0.592229 0.925987 0.700554 -0.35079
C_ C_ 0.840499 0.681623 0.693871 -0.35079
C_ C_ 0.820295 0.933642 0.6862 -0.35079
C_ C_ 0.505559 0.591207 0.780865 -0.12085
C_ C_ 0.507909 0.844192 0.775865 -0.12085
C_ C_ 0.760746 0.597374 0.778146 -0.12085
C_ C_ 0.770553 0.849223 0.77676 -0.12085
C_ C_ 0.74105 0.557029 0.701723 0.6956
C_ C_ 0.745109 0.804617 0.700907 0.6956
C_ C_ 0.989578 0.553445 0.70156 0.6956
C_ C_ 0.990646 0.804482 0.701813 0.6956
C_ C_ 0.504589 0.560911 0.749053 -0.16651
C_ C_ 0.506721 0.814038 0.743667 -0.16651
C_ C_ 0.756687 0.565734 0.746459 -0.16651
C_ C_ 0.764079 0.817167 0.746384 -0.16651
C_ C_ 0.542097 0.553514 0.803517 -0.12085
C_ C_ 0.547536 0.808695 0.798563 -0.12085
C_ C_ 0.792832 0.556216 0.799812 -0.12085
C_ C_ 0.797083 0.806869 0.801364 -0.12085
C_ C_ 0.527115 0.603016 0.821431 0.16698
C_ C_ 0.525363 0.853623 0.818712 0.16698
C_ C_ 0.778308 0.606075 0.820482 0.16698
C_ C_ 0.781389 0.854717 0.819778 0.16698
C_ C_ 0.563681 0.629871 0.881145 0.36401
C_ C_ 0.561725 0.880746 0.877873 0.36401
C_ C_ 0.815016 0.631818 0.880747 0.36401
C_ C_ 0.814815 0.88077 0.882058 0.36401
C_ C_ 0.540027 0.581268 0.833016 0.16698
C_ C_ 0.543932 0.835055 0.829238 0.16698
C_ C_ 0.791854 0.583721 0.829886 0.16698
C_ C_ 0.792963 0.833246 0.832821 0.16698
C_ C_ 0.523804 0.541564 0.761204 -0.12085
C_ C_ 0.525737 0.795921 0.756672 -0.12085
C_ C_ 0.771645 0.545535 0.758847 -0.12085
C_ C_ 0.776331 0.795659 0.760361 -0.12085
C_ C_ 0.590903 0.660166 0.919786 0.15351
C_ C_ 0.588374 0.912419 0.913601 0.15351
C_ C_ 0.832103 0.655686 0.925029 0.15351
C_ C_ 0.837939 0.909026 0.923804 0.15351
C_ C_ 0.627543 0.687762 0.909517 -0.35079
C_ C_ 0.626581 0.935388 0.901664 -0.35079
C_ C_ 0.86873 0.684659 0.925388 -0.35079
C_ C_ 0.875373 0.936933 0.916676 -0.35079
C_ C_ 0.669939 0.647854 0.975647 -0.12085
C_ C_ 0.663455 0.905539 0.97252 -0.12085
C_ C_ 0.923611 0.651981 0.976897 -0.12085
C_ C_ 0.923761 0.90706 0.976414 -0.12085
C_ C_ 0.692097 0.692848 0.554187 0.6956
C_ C_ 0.686747 0.944564 0.551007 0.6956
C_ C_ 0.933373 0.692263 0.546918 0.6956
C_ C_ 0.935384 0.945043 0.549559 0.6956
C_ C_ 0.700929 0.681145 0.509307 -0.16651
C_ C_ 0.698561 0.932502 0.50803 -0.16651
C_ C_ 0.94678 0.682163 0.505658 -0.16651
C_ C_ 0.94883 0.934659 0.507559 -0.16651
C_ C_ 0.491001 0.693968 0.956828 -0.12085
C_ C_ 0.491779 0.943076 0.956501 -0.12085
C_ C_ 0.73459 0.695526 0.952961 -0.12085
C_ C_ 0.73581 0.949565 0.956171 -0.12085
C_ C_ 0.681306 0.63866 0.935864 0.16698
C_ C_ 0.679072 0.893986 0.935865 0.16698
C_ C_ 0.93261 0.643344 0.935014 0.16698
C_ C_ 0.934477 0.896565 0.935618 0.16698
C_ C_ 0.683495 0.622017 0.868703 0.36401
C_ C_ 0.68359 0.877315 0.869227 0.36401
C_ C_ 0.93546 0.626129 0.867732 0.36401
C_ C_ 0.936944 0.876759 0.869725 0.36401
C_ C_ 0.715673 0.662797 0.927824 0.16698
C_ C_ 0.715296 0.916003 0.92913 0.16698
C_ C_ 0.96727 0.667155 0.924759 0.16698
C_ C_ 0.970561 0.916253 0.9271 0.16698
C_ C_ 0.736069 0.701369 0.497067 -0.12085
C_ C_ 0.735625 0.952558 0.497104 -0.12085
C_ C_ 0.986631 0.70114 0.498974 -0.12085
C_ C_ 0.981365 0.956644 0.49403 -0.12085
C_ C_ 0.668906 0.607929 0.821305 0.15351
C_ C_ 0.671963 0.859732 0.821365 0.15351
C_ C_ 0.920812 0.610382 0.820547 0.15351
C_ C_ 0.923482 0.857603 0.822505 0.15351
C_ C_ 0.656738 0.571664 0.79835 -0.35079
C_ C_ 0.662649 0.820901 0.805896 -0.35079
C_ C_ 0.911019 0.571491 0.800646 -0.35079
C_ C_ 0.919146 0.819932 0.813058 -0.35079
N_ N_ 0.707444 0.615382 0.651094 -0.51457
N_ N_ 0.70804 0.866366 0.647161 -0.51457
N_ N_ 0.957517 0.613208 0.64574 -0.51457
N_ N_ 0.955211 0.864595 0.648054 -0.51457
N_ N_ 0.67869 0.649429 0.637972 -0.51457
N_ N_ 0.682563 0.901618 0.631427 -0.51457
N_ N_ 0.929377 0.648232 0.633072 -0.51457
N_ N_ 0.925877 0.899134 0.635493 -0.51457
N_ N_ 0.590898 0.631841 0.606323 -0.51457
N_ N_ 0.586381 0.883076 0.599564 -0.51457
N_ N_ 0.841108 0.634361 0.602503 -0.51457
N_ N_ 0.83734 0.884649 0.600579 -0.51457
N_ N_ 0.528258 0.597908 0.618259 -0.51457
N_ N_ 0.523566 0.848844 0.612155 -0.51457
N_ N_ 0.779084 0.600483 0.614271 -0.51457
N_ N_ 0.779205 0.846883 0.61545 -0.51457
N_ N_ 0.542585 0.634704 0.850876 -0.51457
N_ N_ 0.537652 0.884331 0.85019 -0.51457
N_ N_ 0.792228 0.636634 0.851644 -0.51457
N_ N_ 0.792191 0.885166 0.851256 -0.51457
N_ N_ 0.563385 0.597503 0.871654 -0.51457
N_ N_ 0.566868 0.851266 0.867164 -0.51457
N_ N_ 0.81723 0.600121 0.866633 -0.51457
N_ N_ 0.816116 0.849271 0.870022 -0.51457
N_ N_ 0.658309 0.614171 0.89971 -0.51457
N_ N_ 0.65845 0.869231 0.898399 -0.51457
N_ N_ 0.90957 0.617597 0.898313 -0.51457
N_ N_ 0.911115 0.871429 0.898709 -0.51457
N_ N_ 0.720728 0.65171 0.88646 -0.51457
N_ N_ 0.720253 0.905819 0.887998 -0.51457
N_ N_ 0.971176 0.655746 0.883753 -0.51457
N_ N_ 0.973563 0.904858 0.884435 -0.51457
O_ O_ 0.512254 0.722663 0.82673 -0.61362
O_ O_ 0.520396 0.980217 0.827373 -0.61362
O_ O_ 0.774276 0.73054 0.826665 -0.61362
O_ O_ 0.771094 0.979963 0.822394 -0.61362
O_ O_ 0.552021 0.715629 0.882058 -0.98607
O_ O_ 0.558069 0.968547 0.88145 -0.98607
O_ O_ 0.800293 0.718736 0.886801 -0.98607
O_ O_ 0.802687 0.967214 0.886853 -0.98607
O_ O_ 0.522078 0.674452 0.810236 -0.61362
O_ O_ 0.510645 0.926478 0.816178 -0.61362
O_ O_ 0.76784 0.675998 0.816207 -0.61362
O_ O_ 0.7689 0.928027 0.812484 -0.61362
O_ O_ 0.677474 0.576983 0.562851 -0.55956
O_ O_ 0.686373 0.829767 0.557822 -0.55956
O_ O_ 0.943487 0.583679 0.553718 -0.55956
O_ O_ 0.9269 0.826169 0.557719 -0.55956
O_ O_ 0.539536 0.522601 0.928376 -0.61362
O_ O_ 0.546366 0.777454 0.922056 -0.61362
O_ O_ 0.794534 0.523422 0.924443 -0.61362
O_ O_ 0.787196 0.780199 0.923028 -0.61362
O_ O_ 0.590916 0.535111 0.877421 -0.98607
O_ O_ 0.590186 0.786338 0.870259 -0.98607
O_ O_ 0.842352 0.537016 0.869583 -0.98607
O_ O_ 0.842254 0.788802 0.873985 -0.98607
O_ O_ 0.588875 0.57553 0.93945 -0.61362
O_ O_ 0.599098 0.830771 0.938474 -0.61362
O_ O_ 0.841179 0.577573 0.936911 -0.61362
O_ O_ 0.844281 0.831026 0.941205 -0.61362
O_ O_ 0.604619 0.627789 0.688691 -0.55956
O_ O_ 0.60395 0.877328 0.682769 -0.55956
O_ O_ 0.860556 0.638727 0.68989 -0.55956
O_ O_ 0.852347 0.902906 0.694458 -0.55956
O_ O_ 0.727527 0.524617 0.675973 -0.61362
O_ O_ 0.729655 0.772076 0.67773 -0.61362
O_ O_ 0.98547 0.523963 0.674467 -0.61362
O_ O_ 0.981887 0.773112 0.675239 -0.61362
O_ O_ 0.697392 0.532562 0.612338 -0.98607
O_ O_ 0.695671 0.782184 0.619025 -0.98607
O_ O_ 0.950936 0.532176 0.617559 -0.98607
O_ O_ 0.942864 0.782963 0.618781 -0.98607
O_ O_ 0.742054 0.580837 0.686724 -0.61362
O_ O_ 0.734631 0.826309 0.688982 -0.61362
O_ O_ 0.978339 0.572864 0.69031 -0.61362
O_ O_ 0.981439 0.825625 0.688687 -0.61362
O_ O_ 0.570294 0.673611 0.942219 -0.55956
O_ O_ 0.568846 0.929051 0.931967 -0.55956
O_ O_ 0.808618 0.666441 0.943373 -0.55956
O_ O_ 0.814657 0.922749 0.941094 -0.55956
O_ O_ 0.712708 0.724937 0.579497 -0.61362
O_ O_ 0.709327 0.976556 0.577177 -0.61362
O_ O_ 0.952295 0.724088 0.571967 -0.61362
O_ O_ 0.953811 0.976772 0.574838 -0.61362
O_ O_ 0.656461 0.71427 0.629704 -0.98607
O_ O_ 0.659365 0.963135 0.628465 -0.98607
O_ O_ 0.909819 0.715313 0.628606 -0.98607
O_ O_ 0.899186 0.962923 0.621907 -0.98607
O_ O_ 0.662923 0.670818 0.565539 -0.61362
O_ O_ 0.653844 0.924194 0.561731 -0.61362
O_ O_ 0.911258 0.66896 0.563811 -0.61362
O_ O_ 0.908203 0.922919 0.562321 -0.61362
O_ O_ 0.640375 0.615287 0.813239 -0.55956
O_ O_ 0.643771 0.86281 0.803166 -0.55956
O_ O_ 0.892611 0.616285 0.809674 -0.55956
O_ O_ 0.892242 0.858547 0.809666 -0.55956
