_cell_length_a 34.63
_cell_length_b 38.60000006458207
_cell_length_c 44.73600002747608
_cell_angle_alpha 90.00000024786584
_cell_angle_beta 90.00200053664975
_cell_angle_gamma 94.96899993046472
_symmetry_space_group_name_H-M         'P 1'
_symmetry_Int_Tables_number            1
loop_
_symmetry_equiv_pos_as_xyz
   'x, y, z'
                         
loop_
_atom_site_label
_atom_site_type_symbol
_atom_site_fract_x 
_atom_site_fract_y
_atom_site_fract_z
_atom_site_charge
Cd Cd 0.193003 -0.0003630000000000022 0.219931 0.98062
Cd Cd 0.435563 -6.60000000000105e-05 0.217862 0.98062
Cd Cd 0.0683413 0.246058 0.469559 0.98062
Cd Cd 0.313211 0.248695 0.466719 0.98062
Cd Cd 0.0723903 0.498314 0.278905 0.98062
Cd Cd 0.318214 0.498482 0.284497 0.98062
Cd Cd 0.188624 0.252234 0.0340525 0.98062
Cd Cd 0.435791 0.249522 0.0288124 0.98062
H_ H_ 0.0144364 0.079578 0.218465 0.11374
H_ H_ 0.270855 0.080968 0.223671 0.11374
H_ H_ 0.263412 0.129808 0.188419 0.11374
H_ H_ 0.521288 0.136012 0.196376 0.11374
H_ H_ 0.135363 0.0837434 0.19375 0.11374
H_ H_ 0.390082 0.0779968 0.19225 0.11374
H_ H_ 0.124366 0.264483 0.0855143 0.11374
H_ H_ 0.376594 0.261281 0.0826294 0.11374
H_ H_ 0.0896214 0.231092 0.124818 0.11374
H_ H_ 0.351122 0.227932 0.128758 0.11374
H_ H_ 0.152633 0.144598 0.10041 0.11374
H_ H_ 0.394116 0.136401 0.0907025 0.11374
H_ H_ 0.173751 0.174097 0.0536158 0.11374
H_ H_ 0.425201 0.172212 0.0500058 0.11374
H_ H_ 0.0399295 0.0197601 0.155028 0.11374
H_ H_ 0.296904 0.0265824 0.155548 0.11374
H_ H_ 0.0841501 0.0451247 0.114864 0.11374
H_ H_ 0.338167 0.0561084 0.117611 0.11374
H_ H_ 0.206668 0.0927713 0.132866 0.11374
H_ H_ 0.45553 0.0890683 0.136245 0.11374
H_ H_ 0.0582729 0.160915 0.467363 0.11374
H_ H_ 0.325965 0.161358 0.475068 0.11374
H_ H_ 0.0761102 0.122906 0.0191513 0.11374
H_ H_ 0.310089 0.122628 0.0131601 0.11374
H_ H_ 0.0115739 0.19068 0.0711286 0.11374
H_ H_ 0.288109 0.202733 0.0776535 0.11374
H_ H_ 0.0230458 0.236864 0.0314028 0.11374
H_ H_ 0.293069 0.24488 0.039227 0.11374
H_ H_ 0.228935 0.169018 0.480225 0.11374
H_ H_ 0.482521 0.157649 0.475586 0.11374
H_ H_ 0.994697 0.120423 0.428875 0.11374
H_ H_ 0.242976 0.124841 0.44094 0.11374
H_ H_ 0.113647 0.173004 0.442538 0.11374
H_ H_ 0.368231 0.168294 0.43824 0.11374
H_ H_ 0.141487 0.494718 0.328435 0.11374
H_ H_ 0.371776 0.485315 0.338242 0.11374
H_ H_ 0.155753 0.0244421 0.377641 0.11374
H_ H_ 0.409273 0.0178054 0.3692 0.11374
H_ H_ 0.100196 0.110725 0.34593 0.11374
H_ H_ 0.348887 0.106328 0.341934 0.11374
H_ H_ 0.0722316 0.0720981 0.306489 0.11374
H_ H_ 0.321118 0.0723574 0.30075 0.11374
H_ H_ 0.204884 0.225967 0.399942 0.11374
H_ H_ 0.454115 0.226528 0.404913 0.11374
H_ H_ 0.16514 0.197464 0.359996 0.11374
H_ H_ 0.414296 0.200934 0.360985 0.11374
H_ H_ 0.051922 0.164838 0.371313 0.11374
H_ H_ 0.298595 0.163343 0.377187 0.11374
H_ H_ 0.186296 0.0780125 0.221789 0.11374
H_ H_ 0.439585 0.0838513 0.219871 0.11374
H_ H_ 0.19323 0.123467 0.259047 0.11374
H_ H_ 0.448024 0.131277 0.259745 0.11374
H_ H_ 0.226652 0.0496277 0.324714 0.11374
H_ H_ 0.469009 0.0527961 0.324982 0.11374
H_ H_ 0.229386 0.00797644 0.285166 0.11374
H_ H_ 0.456721 0.0076537 0.286158 0.11374
H_ H_ 0.228584 0.40872 0.266841 0.11374
H_ H_ 0.48028 0.406762 0.268453 0.11374
H_ H_ 0.995318 0.367378 0.308765 0.11374
H_ H_ 0.240865 0.36179 0.301484 0.11374
H_ H_ 0.122263 0.424524 0.311878 0.11374
H_ H_ 0.372212 0.429598 0.312802 0.11374
H_ H_ 0.137808 0.240745 0.418627 0.11374
H_ H_ 0.371082 0.238023 0.406541 0.11374
H_ H_ 0.166932 0.277362 0.378851 0.11374
H_ H_ 0.39176 0.270942 0.364203 0.11374
H_ H_ 0.107191 0.361274 0.409584 0.11374
H_ H_ 0.353365 0.361129 0.404268 0.11374
H_ H_ 0.0746942 0.321748 0.448194 0.11374
H_ H_ 0.322825 0.324123 0.446314 0.11374
H_ H_ 0.21167 0.485097 0.3552 0.11374
H_ H_ 0.458198 0.471051 0.333944 0.11374
H_ H_ 0.162029 0.451173 0.386756 0.11374
H_ H_ 0.414258 0.447948 0.37464 0.11374
H_ H_ 0.0515761 0.410803 0.368133 0.11374
H_ H_ 0.287024 0.401529 0.360886 0.11374
H_ H_ 0.181573 0.335076 0.0263321 0.11374
H_ H_ 0.438215 0.337156 0.0239694 0.11374
H_ H_ 0.189327 0.378056 0.490838 0.11374
H_ H_ 0.433139 0.385766 0.484185 0.11374
H_ H_ 0.212571 0.299567 0.425289 0.11374
H_ H_ 0.46961 0.30703 0.423953 0.11374
H_ H_ 0.207672 0.25859 0.467132 0.11374
H_ H_ 0.460383 0.263311 0.460742 0.11374
H_ H_ 0.0137546 0.337064 0.0257321 0.11374
H_ H_ 0.259166 0.33203 0.0330976 0.11374
H_ H_ 0.255024 0.374875 0.071361 0.11374
H_ H_ 0.509961 0.387345 0.0654966 0.11374
H_ H_ 0.128134 0.324017 0.0597276 0.11374
H_ H_ 0.379897 0.335617 0.0434518 0.11374
H_ H_ 0.132593 0.0128479 0.162346 0.11374
H_ H_ 0.375002 0.0119621 0.161958 0.11374
H_ H_ 0.107375 0.480326 0.120779 0.11374
H_ H_ 0.355218 0.4788 0.120868 0.11374
H_ H_ 0.153249 0.392168 0.157908 0.11374
H_ H_ 0.404447 0.389877 0.152256 0.11374
H_ H_ 0.185208 0.432349 0.194307 0.11374
H_ H_ 0.429248 0.422843 0.195675 0.11374
H_ H_ 0.0307194 0.266348 0.10528 0.11374
H_ H_ 0.297389 0.277311 0.0922071 0.11374
H_ H_ 0.078562 0.297957 0.140453 0.11374
H_ H_ 0.339959 0.307015 0.130269 0.11374
H_ H_ 0.20469 0.337961 0.126864 0.11374
H_ H_ 0.451525 0.326607 0.126934 0.11374
H_ H_ 0.0718563 0.4222 0.272957 0.11374
H_ H_ 0.322222 0.41453 0.274433 0.11374
H_ H_ 0.0518628 0.375442 0.233815 0.11374
H_ H_ 0.308233 0.370417 0.234369 0.11374
H_ H_ 0.0188346 0.453942 0.173237 0.11374
H_ H_ 0.28642 0.456165 0.176788 0.11374
H_ H_ 0.0405298 0.497729 0.210966 0.11374
H_ H_ 0.293517 0.492698 0.217554 0.11374
C_ C_ 0.0785252 0.0466722 0.229898 0.62841
C_ C_ 0.335482 0.0467546 0.232389 0.62841
C_ C_ 0.0747106 0.0771354 0.209962 -0.11088
C_ C_ 0.331267 0.0770288 0.212584 -0.11088
C_ C_ 0.0389368 0.0914447 0.207147 -0.11981
C_ C_ 0.295039 0.0929401 0.21143 -0.11981
C_ C_ 0.0331437 0.119074 0.187552 -0.11981
C_ C_ 0.291117 0.118298 0.190229 -0.11981
C_ C_ 0.0672305 0.136336 0.174574 -0.11088
C_ C_ 0.323634 0.133551 0.175743 -0.11088
C_ C_ 0.104068 0.127821 0.180797 -0.11088
C_ C_ 0.358796 0.121637 0.17806 -0.11088
C_ C_ 0.107962 0.0956087 0.194591 -0.11981
C_ C_ 0.361244 0.089181 0.192376 -0.11981
C_ C_ 0.127039 0.144946 0.158014 0.50456
C_ C_ 0.379931 0.134601 0.153457 0.50456
C_ C_ 0.0700316 0.161876 0.1523 0.50456
C_ C_ 0.326338 0.157751 0.151978 0.50456
C_ C_ 0.129916 0.238032 0.0868465 0.19611
C_ C_ 0.385762 0.236026 0.0872479 0.19611
C_ C_ 0.112915 0.220367 0.111778 -0.11981
C_ C_ 0.366417 0.215381 0.110052 -0.11981
C_ C_ 0.122627 0.186036 0.117475 0.26597
C_ C_ 0.373711 0.179727 0.112858 0.26597
C_ C_ 0.147725 0.171852 0.098183 -0.11981
C_ C_ 0.392254 0.164568 0.0896768 -0.11981
C_ C_ 0.160514 0.189277 0.0704821 0.19611
C_ C_ 0.412725 0.185509 0.0672632 0.19611
C_ C_ 0.223626 0.040375 0.172126 0.62841
C_ C_ 0.47498 0.0341686 0.175554 0.62841
C_ C_ 0.247676 0.0585026 0.147014 -0.11088
C_ C_ 0.500719 0.0528254 0.151123 -0.11088
C_ C_ 0.0308268 0.0393636 0.141474 -0.11981
C_ C_ 0.284176 0.0458285 0.141486 -0.11981
C_ C_ 0.0530138 0.0515242 0.116237 -0.11981
C_ C_ 0.30795 0.060631 0.118247 -0.11981
C_ C_ 0.0401137 0.0800461 0.0985099 -0.11088
C_ C_ 0.294298 0.0862037 0.101915 -0.11088
C_ C_ 0.258315 0.0961181 0.103841 -0.11088
C_ C_ 0.507197 0.0928475 0.108847 -0.11088
C_ C_ 0.234422 0.0842594 0.127962 -0.11981
C_ C_ 0.486287 0.0801295 0.133889 -0.11981
C_ C_ 0.0612239 0.103332 0.0805943 0.50456
C_ C_ 0.312454 0.108416 0.0802279 0.50456
C_ C_ 0.255935 0.124497 0.0860185 0.50456
C_ C_ 0.504368 0.123564 0.0928064 0.50456
C_ C_ 0.0709012 0.172503 1.0002 0.19611
C_ C_ 0.30555 0.174847 0.995887 0.19611
C_ C_ 0.0653577 0.147164 0.0220973 -0.11981
C_ C_ 0.305447 0.149657 0.0189259 -0.11981
C_ C_ 0.0455787 0.154116 0.0482934 0.26597
C_ C_ 0.297587 0.158856 0.047513 0.26597
C_ C_ 0.0322236 0.187168 0.0516169 -0.11981
C_ C_ 0.293155 0.194033 0.0541284 -0.11981
C_ C_ 0.0387695 0.212683 0.0283918 0.19611
C_ C_ 0.294456 0.217853 0.0316059 0.19611
C_ C_ 0.15784 0.197975 0.488454 0.62841
C_ C_ 0.422096 0.200744 0.477731 0.62841
C_ C_ 0.168122 0.172116 0.466246 -0.11088
C_ C_ 0.4269 0.168845 0.458692 -0.11088
C_ C_ 0.206321 0.16033 0.464414 -0.11981
C_ C_ 0.460702 0.149732 0.4596 -0.11981
C_ C_ 0.214805 0.134925 0.443549 -0.11981
C_ C_ 0.466659 0.122909 0.439982 -0.11981
C_ C_ 0.184651 0.122441 0.423357 -0.11088
C_ C_ 0.435813 0.112406 0.420891 -0.11088
C_ C_ 0.150492 0.138453 0.421162 -0.11088
C_ C_ 0.399635 0.127047 0.422285 -0.11088
C_ C_ 0.140412 0.159798 0.444961 -0.11981
C_ C_ 0.394999 0.155062 0.440373 -0.11981
C_ C_ 0.125618 0.118035 0.401896 0.50456
C_ C_ 0.377647 0.110574 0.398981 0.50456
C_ C_ 0.179597 0.0944566 0.403316 0.50456
C_ C_ 0.434672 0.0905468 0.395775 0.50456
C_ C_ 0.124569 0.0168423 0.336111 0.19611
C_ C_ 0.380495 0.0149344 0.32712 0.19611
C_ C_ 0.141354 0.0381335 0.359923 -0.11981
C_ C_ 0.395776 0.032899 0.352849 -0.11981
C_ C_ 0.1323 0.0721123 0.365004 0.26597
C_ C_ 0.383272 0.0660689 0.35847 0.26597
C_ C_ 0.106558 0.0845719 0.34484 -0.11981
C_ C_ 0.356811 0.0794766 0.339004 -0.11981
C_ C_ 0.0911243 0.0626588 0.321413 0.19611
C_ C_ 0.341723 0.0612582 0.314564 0.19611
C_ C_ 0.0371014 0.214101 0.414467 0.62841
C_ C_ 0.276494 0.209462 0.42119 0.62841
C_ C_ 0.0118342 0.199385 0.388706 -0.11088
C_ C_ 0.255299 0.19633 0.393831 -0.11088
C_ C_ 0.218117 0.207745 0.386064 -0.11981
C_ C_ 0.467679 0.211122 0.386774 -0.11981
C_ C_ 0.193784 0.190017 0.364531 -0.11981
C_ C_ 0.44375 0.195306 0.364432 -0.11981
C_ C_ 0.209576 0.166413 0.346846 -0.11088
C_ C_ 0.459926 0.170578 0.34584 -0.11088
C_ C_ 0.999632 0.161304 0.345592 -0.11088
C_ C_ 0.246911 0.157563 0.351286 -0.11088
C_ C_ 0.0243289 0.175213 0.367829 -0.11981
C_ C_ 0.269901 0.171306 0.373608 -0.11981
C_ C_ 0.192794 0.142436 0.325317 0.50456
C_ C_ 0.444152 0.148394 0.323025 0.50456
C_ C_ 1.00280354 0.131155 0.327565 0.50456
C_ C_ 0.249717 0.127409 0.332973 0.50456
C_ C_ 0.193248 0.0705014 0.244106 0.19611
C_ C_ 0.444027 0.0769147 0.244306 0.19611
C_ C_ 0.195221 0.0970755 0.266258 -0.11981
C_ C_ 0.450961 0.104177 0.265012 -0.11981
C_ C_ 0.209675 0.0922053 0.294948 0.26597
C_ C_ 0.459676 0.0955079 0.295161 0.26597
C_ C_ 0.217803 0.0573178 0.302629 -0.11981
C_ C_ 0.464908 0.0611965 0.301596 -0.11981
C_ C_ 0.217792 0.0320512 0.279983 0.19611
C_ C_ 0.456392 0.0342763 0.279491 0.19611
C_ C_ 0.169285 0.449777 0.265803 0.62841
C_ C_ 0.421088 0.450856 0.26282 0.62841
C_ C_ 0.175628 0.421113 0.288333 -0.11088
C_ C_ 0.426292 0.423776 0.286243 -0.11088
C_ C_ 0.206868 0.401056 0.284337 -0.11981
C_ C_ 0.458675 0.403612 0.285925 -0.11981
C_ C_ 0.21344 0.372525 0.303617 -0.11981
C_ C_ 0.460769 0.374871 0.30376 -0.11981
C_ C_ 0.18695 0.366363 0.326718 -0.11088
C_ C_ 0.432265 0.367933 0.325819 -0.11088
C_ C_ 0.154878 0.383928 0.330455 -0.11088
C_ C_ 0.397931 0.383178 0.324957 -0.11088
C_ C_ 0.148648 0.411618 0.311008 -0.11981
C_ C_ 0.396511 0.413399 0.307767 -0.11981
C_ C_ 0.129889 0.367781 0.352058 0.50456
C_ C_ 0.372518 0.365711 0.344973 0.50456
C_ C_ 0.183824 0.341006 0.348067 0.50456
C_ C_ 0.425963 0.339664 0.346045 0.50456
C_ C_ 0.124973 0.264437 0.41432 0.19611
C_ C_ 0.365932 0.263908 0.408389 0.19611
C_ C_ 0.145174 0.286482 0.392624 -0.11981
C_ C_ 0.378761 0.283157 0.382043 -0.11981
C_ C_ 0.136099 0.321776 0.390686 0.26597
C_ C_ 0.374622 0.318344 0.381972 0.26597
C_ C_ 0.110079 0.334543 0.411229 -0.11981
C_ C_ 0.356758 0.3331 0.405779 -0.11981
C_ C_ 0.0935447 0.311853 0.433611 0.19611
C_ C_ 0.338542 0.311542 0.428957 0.19611
C_ C_ 0.0392036 0.464982 0.328703 0.62841
C_ C_ 0.278108 0.461977 0.329573 0.62841
C_ C_ 0.0121741 0.446597 0.350655 -0.11088
C_ C_ 0.25034 0.444496 0.352245 -0.11088
C_ C_ 0.218262 0.460633 0.36456 -0.11981
C_ C_ 0.467186 0.454325 0.350575 -0.11981
C_ C_ 0.192068 0.443436 0.384216 -0.11981
C_ C_ 0.443238 0.440087 0.373815 -0.11981
C_ C_ 0.204476 0.414564 0.400366 -0.11088
C_ C_ 0.458315 0.420508 0.397439 -0.11088
C_ C_ 1.000482766 0.410578 0.395959 -0.11088
C_ C_ 0.240727 0.403722 0.395399 -0.11088
C_ C_ 0.0259693 0.423328 0.373565 -0.11981
C_ C_ 0.261644 0.413529 0.368245 -0.11981
C_ C_ 0.186303 0.393931 0.422595 0.50456
C_ C_ 0.439611 0.39601 0.416952 0.50456
C_ C_ 1.0037517 0.382655 0.414413 0.50456
C_ C_ 0.242041 0.374394 0.41357 0.50456
C_ C_ 0.183628 0.326167 0.506446 0.19611
C_ C_ 0.442297 0.331286 0.502915 0.19611
C_ C_ 0.194368 0.352645 0.484802 -0.11981
C_ C_ 0.446204 0.358511 0.480652 -0.11981
C_ C_ 0.204231 0.34412 0.455031 0.26597
C_ C_ 0.458169 0.350114 0.451336 0.26597
C_ C_ 0.208051 0.309088 0.44841 -0.11981
C_ C_ 0.4636 0.315852 0.445906 -0.11981
C_ C_ 0.201707 0.28453 0.472464 0.19611
C_ C_ 0.451728 0.289363 0.466181 0.19611
C_ C_ 0.0763316 0.297726 0.017701 0.62841
C_ C_ 0.324087 0.304219 0.0131047 0.62841
C_ C_ 0.0735101 0.32779 0.0380988 -0.11088
C_ C_ 0.320444 0.331318 0.035466 -0.11088
C_ C_ 0.0386357 0.345789 0.0385603 -0.11981
C_ C_ 0.284928 0.346916 0.0400917 -0.11981
C_ C_ 0.0379451 0.374185 0.0572765 -0.11981
C_ C_ 0.283207 0.373378 0.0603684 -0.11981
C_ C_ 0.0707778 0.387065 0.0735762 -0.11088
C_ C_ 0.317575 0.389171 0.0727277 -0.11088
C_ C_ 0.104038 0.372119 0.0728303 -0.11088
C_ C_ 0.352944 0.375617 0.0675994 -0.11088
C_ C_ 0.105021 0.340604 0.0567545 -0.11981
C_ C_ 0.353427 0.346123 0.0502998 -0.11981
C_ C_ 0.125912 0.384319 0.0973945 0.50456
C_ C_ 0.379474 0.390436 0.0883191 0.50456
C_ C_ 0.0744852 0.412095 0.0965372 0.50456
C_ C_ 0.324247 0.410405 0.0975091 0.50456
C_ C_ 0.129841 0.486653 0.164954 0.19611
C_ C_ 0.381825 0.484446 0.16369 0.19611
C_ C_ 0.11548 0.466573 0.139383 -0.11981
C_ C_ 0.368859 0.465938 0.137702 -0.11981
C_ C_ 0.12228 0.431507 0.136796 0.26597
C_ C_ 0.37928 0.431952 0.131919 0.26597
C_ C_ 0.146632 0.418729 0.15852 -0.11981
C_ C_ 0.397822 0.416786 0.155708 -0.11981
C_ C_ 0.163663 0.440836 0.181004 0.19611
C_ C_ 0.413762 0.435799 0.178735 0.19611
C_ C_ 0.22039 0.288022 0.0817109 0.62841
C_ C_ 0.472985 0.286387 0.0774649 0.62841
C_ C_ 0.246711 0.305657 0.104879 -0.11088
C_ C_ 0.497592 0.302377 0.103294 -0.11088
C_ C_ 0.0267484 0.292919 0.110944 -0.11981
C_ C_ 0.285903 0.296178 0.107281 -0.11981
C_ C_ 0.0526922 0.309416 0.132059 -0.11981
C_ C_ 0.31044 0.311641 0.129941 -0.11981
C_ C_ 0.039563 0.338821 0.145413 -0.11088
C_ C_ 0.296459 0.337053 0.149758 -0.11088
C_ C_ 0.258461 0.344398 0.148629 -0.11088
C_ C_ 0.507955 0.339761 0.14876 -0.11088
C_ C_ 0.234053 0.330041 0.126011 -0.11981
C_ C_ 0.482398 0.32393 0.126324 -0.11981
C_ C_ 0.054977 0.358873 0.169598 0.50456
C_ C_ 0.314281 0.362126 0.168621 0.50456
C_ C_ 0.254492 0.373911 0.165817 0.50456
C_ C_ 0.505331 0.370181 0.165579 0.50456
C_ C_ 0.0631333 0.428887 0.25039 0.19611
C_ C_ 0.309911 0.422318 0.254369 0.19611
C_ C_ 0.0520417 0.401852 0.227952 -0.11981
C_ C_ 0.302285 0.397026 0.232326 -0.11981
C_ C_ 0.0375548 0.410212 0.199408 0.26597
C_ C_ 0.29215 0.409455 0.203054 0.26597
C_ C_ 0.0286755 0.44468 0.195061 -0.11981
C_ C_ 0.288031 0.444741 0.198446 -0.11981
C_ C_ 0.0430956 0.470235 0.215673 0.19611
C_ C_ 0.294183 0.467064 0.221797 0.19611
N_ N_ 0.153462 0.222561 0.0669786 -0.35402
N_ N_ 0.408971 0.220224 0.0666884 -0.35402
N_ N_ 0.107313 0.166654 0.1424 -0.27957
N_ N_ 0.360975 0.158985 0.138935 -0.27957
N_ N_ 0.0390408 0.12846 0.0725689 -0.27957
N_ N_ 0.289011 0.131229 0.0697898 -0.27957
N_ N_ 0.0574485 0.204748 1.00335129 -0.35402
N_ N_ 0.303486 0.209438 0.00274161 -0.35402
N_ N_ 0.102002 0.0304633 0.31642 -0.35402
N_ N_ 0.352126 0.0281677 0.309678 -0.35402
N_ N_ 0.143306 0.0919922 0.391711 -0.27957
N_ N_ 0.399538 0.0890208 0.382732 -0.27957
N_ N_ 0.218469 0.121346 0.314695 -0.27957
N_ N_ 0.464923 0.121056 0.31927 -0.27957
N_ N_ 0.206013 0.0383547 0.251209 -0.35402
N_ N_ 0.446057 0.0418843 0.251317 -0.35402
N_ N_ 0.100906 0.277742 0.434989 -0.35402
N_ N_ 0.345504 0.277554 0.43073 -0.35402
N_ N_ 0.149607 0.341673 0.363996 -0.27957
N_ N_ 0.390192 0.339554 0.35763 -0.27957
N_ N_ 0.210534 0.370538 0.432295 -0.27957
N_ N_ 0.46487 0.375305 0.427921 -0.27957
N_ N_ 0.187574 0.292915 0.499696 -0.35402
N_ N_ 0.44123 0.297071 0.495301 -0.35402
N_ N_ 0.152124 0.473393 0.185026 -0.35402
N_ N_ 0.406456 0.469362 0.182818 -0.35402
N_ N_ 0.108578 0.409793 0.111518 -0.27957
N_ N_ 0.361927 0.41095 0.107189 -0.27957
N_ N_ 0.0313308 0.384057 0.176651 -0.27957
N_ N_ 0.288176 0.385172 0.178299 -0.27957
N_ N_ 0.0579879 0.46175 0.243562 -0.35402
N_ N_ 0.305403 0.457395 0.249477 -0.35402
O_ O_ 0.107102 0.0262704 0.224986 -0.59275
O_ O_ 0.363966 0.0274576 0.226922 -0.59275
O_ O_ 0.0548616 0.0393896 0.252912 -0.41573
O_ O_ 0.310362 0.0360988 0.252582 -0.41573
O_ O_ 0.0404326 0.168013 0.136249 -0.59275
O_ O_ 0.298777 0.172746 0.141444 -0.59275
O_ O_ 0.163867 0.148894 0.16022 -0.59275
O_ O_ 0.417935 0.13667 0.154173 -0.59275
O_ O_ 0.188552 0.0476813 0.177063 -0.59275
O_ O_ 0.438458 0.0395184 0.175564 -0.59275
O_ O_ 0.23832 0.0182036 0.190294 -0.41573
O_ O_ 0.487517 0.011269 0.194972 -0.41573
O_ O_ 0.224609 0.137763 0.0765531 -0.59275
O_ O_ 0.470626 0.134929 0.08445 -0.59275
O_ O_ 0.0985622 0.105175 0.0776126 -0.59275
O_ O_ 0.342537 0.10059 0.0654043 -0.59275
O_ O_ 0.130187 0.217853 0.482432 -0.59275
O_ O_ 0.391393 0.220133 0.471972 -0.59275
O_ O_ 0.193652 0.206912 0.00751892 -0.41573
O_ O_ 0.445585 0.206791 0.00268517 -0.41573
O_ O_ 0.207426 0.0760575 0.393231 -0.59275
O_ O_ 0.458283 0.0663252 0.390453 -0.59275
O_ O_ 0.0874685 0.116781 0.40523 -0.59275
O_ O_ 0.340805 0.10385 0.402842 -0.59275
O_ O_ 0.0748931 0.208655 0.414873 -0.59275
O_ O_ 0.307142 0.192335 0.429232 -0.59275
O_ O_ 0.0245823 0.230107 0.437594 -0.41573
O_ O_ 0.267399 0.235778 0.436702 -0.41573
O_ O_ 0.0346901 0.123913 0.314124 -0.59275
O_ O_ 0.284401 0.118224 0.324985 -0.59275
O_ O_ 0.159344 0.145521 0.312066 -0.59275
O_ O_ 0.407675 0.148306 0.313971 -0.59275
O_ O_ 0.139818 0.469247 0.267821 -0.59275
O_ O_ 0.391068 0.467558 0.263603 -0.59275
O_ O_ 0.194875 0.459686 0.244177 -0.41573
O_ O_ 0.44872 0.46146 0.244272 -0.41573
O_ O_ 0.21157 0.321688 0.356122 -0.59275
O_ O_ 0.452317 0.322246 0.35911 -0.59275
O_ O_ 0.0921258 0.360732 0.346716 -0.59275
O_ O_ 0.334745 0.36348 0.340783 -0.59275
O_ O_ 0.0750429 0.455352 0.32479 -0.59275
O_ O_ 0.312275 0.448819 0.324984 -0.59275
O_ O_ 0.0273515 0.486466 0.308716 -0.41573
O_ O_ 0.268746 0.486443 0.310033 -0.41573
O_ O_ 0.0352027 0.370534 0.422059 -0.59275
O_ O_ 0.274386 0.358723 0.418285 -0.59275
O_ O_ 0.161392 0.405847 0.440643 -0.59275
O_ O_ 0.404139 0.398728 0.427188 -0.59275
O_ O_ 0.106665 0.279322 0.0190999 -0.59275
O_ O_ 0.355282 0.287655 0.0133473 -0.59275
O_ O_ 0.0495101 0.283064 0.495874 -0.41573
O_ O_ 0.300362 0.288098 0.495042 -0.41573
O_ O_ 0.0473347 0.428578 0.107161 -0.59275
O_ O_ 0.297989 0.426795 0.110855 -0.59275
O_ O_ 0.162051 0.378305 0.102813 -0.59275
O_ O_ 0.414693 0.383457 0.0921806 -0.59275
O_ O_ 0.184556 0.295578 0.0765707 -0.59275
O_ O_ 0.441027 0.299667 0.0709106 -0.59275
O_ O_ 0.23524 0.268556 0.06099 -0.41573
O_ O_ 0.482071 0.261238 0.0588237 -0.41573
O_ O_ 0.221883 0.381036 0.17815 -0.59275
O_ O_ 0.473997 0.381363 0.176228 -0.59275
O_ O_ 0.090466 0.35963 0.179232 -0.59275
O_ O_ 0.349203 0.361959 0.179575 -0.59275
Cd Cd 0.180814 -0.005198000000000036 0.716674 0.98062
Cd Cd 0.43661 0.00649849 0.72022 0.98062
Cd Cd 0.0652787 0.247521 0.970102 0.98062
Cd Cd 0.30965 0.24908 0.968964 0.98062
Cd Cd 0.0613541 0.500056 0.781491 0.98062
Cd Cd 0.316426 0.49387 0.779998 0.98062
Cd Cd 0.179276 0.253203 0.534825 0.98062
Cd Cd 0.431888 0.252984 0.52906 0.98062
H_ H_ 0.0254635 0.0864766 0.732161 0.11374
H_ H_ 0.271333 0.0845973 0.727674 0.11374
H_ H_ 0.259823 0.129884 0.688909 0.11374
H_ H_ 0.504263 0.135841 0.698909 0.11374
H_ H_ 0.132239 0.073597 0.687863 0.11374
H_ H_ 0.386396 0.0823609 0.68921 0.11374
H_ H_ 0.113966 0.260759 0.584419 0.11374
H_ H_ 0.368677 0.260951 0.580578 0.11374
H_ H_ 0.0945918 0.227556 0.628106 0.11374
H_ H_ 0.34435 0.226006 0.624551 0.11374
H_ H_ 0.154534 0.140892 0.596547 0.11374
H_ H_ 0.403312 0.142128 0.593707 0.11374
H_ H_ 0.187409 0.183506 0.560984 0.11374
H_ H_ 0.434725 0.178505 0.555664 0.11374
H_ H_ 0.028366 0.00599753 0.637995 0.11374
H_ H_ 0.293357 0.026714 0.6552 0.11374
H_ H_ 0.0814594 0.0377892 0.605895 0.11374
H_ H_ 0.335071 0.0526546 0.616843 0.11374
H_ H_ 0.197409 0.0840156 0.626409 0.11374
H_ H_ 0.452935 0.0899585 0.634299 0.11374
H_ H_ 0.0848276 0.167136 0.979942 0.11374
H_ H_ 0.307977 0.167346 0.972696 0.11374
H_ H_ 0.0383129 0.114608 0.504298 0.11374
H_ H_ 0.308573 0.118279 0.512723 0.11374
H_ H_ 0.0304667 0.189421 0.573558 0.11374
H_ H_ 0.27197 0.196891 0.569423 0.11374
H_ H_ 0.039801 0.235631 0.533359 0.11374
H_ H_ 0.277274 0.237651 0.528225 0.11374
H_ H_ 0.226276 0.151234 0.984839 0.11374
H_ H_ 0.491299 0.166246 0.968871 0.11374
H_ H_ 0.993785 0.124091 0.938215 0.11374
H_ H_ 0.234007 0.101863 0.950421 0.11374
H_ H_ 0.124758 0.176729 0.936344 0.11374
H_ H_ 0.374546 0.169117 0.93837 0.11374
H_ H_ 0.119108 0.487643 0.838081 0.11374
H_ H_ 0.375827 0.488922 0.833458 0.11374
H_ H_ 0.155152 0.0194495 0.879536 0.11374
H_ H_ 0.404288 0.0149184 0.881314 0.11374
H_ H_ 0.0983105 0.104432 0.847541 0.11374
H_ H_ 0.354277 0.103772 0.847456 0.11374
H_ H_ 0.0772514 0.0686195 0.800907 0.11374
H_ H_ 0.329327 0.0693448 0.803045 0.11374
H_ H_ 0.208913 0.223524 0.901174 0.11374
H_ H_ 0.454913 0.229969 0.908694 0.11374
H_ H_ 0.166485 0.195143 0.860113 0.11374
H_ H_ 0.418197 0.208354 0.867402 0.11374
H_ H_ 0.0508667 0.157885 0.883219 0.11374
H_ H_ 0.282839 0.143193 0.888833 0.11374
H_ H_ 0.178725 0.0740699 0.722179 0.11374
H_ H_ 0.43551 0.0845982 0.727543 0.11374
H_ H_ 0.19158 0.121859 0.758742 0.11374
H_ H_ 0.436895 0.127907 0.767108 0.11374
H_ H_ 0.216779 0.0438384 0.824225 0.11374
H_ H_ 0.473541 0.054125 0.829577 0.11374
H_ H_ 0.20448 -0.001758999999999955 0.785271 0.11374
H_ H_ 0.463701 0.00956699 0.789955 0.11374
H_ H_ 0.22578 0.413596 0.77362 0.11374
H_ H_ 0.47925 0.417064 0.773319 0.11374
H_ H_ 0.98385 0.376425 0.816212 0.11374
H_ H_ 0.230405 0.366633 0.809813 0.11374
H_ H_ 0.107892 0.418088 0.803011 0.11374
H_ H_ 0.363131 0.419531 0.809246 0.11374
H_ H_ 0.11719 0.237881 0.911681 0.11374
H_ H_ 0.378837 0.235746 0.91702 0.11374
H_ H_ 0.144996 0.272519 0.872451 0.11374
H_ H_ 0.409415 0.270162 0.877481 0.11374
H_ H_ 0.0906833 0.363019 0.908005 0.11374
H_ H_ 0.352222 0.357641 0.910514 0.11374
H_ H_ 0.06528 0.324954 0.950127 0.11374
H_ H_ 0.323315 0.322589 0.949277 0.11374
H_ H_ 0.211403 0.479513 0.849302 0.11374
H_ H_ 0.460241 0.472799 0.8391 0.11374
H_ H_ 0.169311 0.454897 0.892546 0.11374
H_ H_ 0.417183 0.443787 0.878124 0.11374
H_ H_ 0.0415356 0.411531 0.871893 0.11374
H_ H_ 0.297867 0.4126 0.870152 0.11374
H_ H_ 0.182766 0.334267 0.528836 0.11374
H_ H_ 0.44302 0.337054 0.526959 0.11374
H_ H_ 0.183613 0.379601 0.988138 0.11374
H_ H_ 0.436449 0.377276 0.98402 0.11374
H_ H_ 0.217671 0.30139 0.926379 0.11374
H_ H_ 0.476356 0.301526 0.925015 0.11374
H_ H_ 0.216038 0.258603 0.966792 0.11374
H_ H_ 0.459066 0.255315 0.963907 0.11374
H_ H_ 0.0220443 0.342548 0.515079 0.11374
H_ H_ 0.262214 0.326913 0.530869 0.11374
H_ H_ 0.255514 0.372014 0.566729 0.11374
H_ H_ 0.509011 0.386957 0.560016 0.11374
H_ H_ 0.12861 0.324844 0.557543 0.11374
H_ H_ 0.383521 0.33026 0.549875 0.11374
H_ H_ 0.123822 0.00707614 0.66396 0.11374
H_ H_ 0.381061 0.0159231 0.665174 0.11374
H_ H_ 0.0876818 0.471129 0.627799 0.11374
H_ H_ 0.343787 0.473776 0.623531 0.11374
H_ H_ 0.150967 0.385141 0.657856 0.11374
H_ H_ 0.398611 0.388146 0.659026 0.11374
H_ H_ 0.180358 0.420528 0.696814 0.11374
H_ H_ 0.422082 0.42352 0.70124 0.11374
H_ H_ 0.0506402 0.286893 0.591639 0.11374
H_ H_ 0.29001 0.271353 0.594683 0.11374
H_ H_ 0.0913032 0.315185 0.632052 0.11374
H_ H_ 0.333561 0.30367 0.635393 0.11374
H_ H_ 0.207007 0.347271 0.612718 0.11374
H_ H_ 0.447707 0.338129 0.61753 0.11374
H_ H_ 0.0501403 0.419446 0.779998 0.11374
H_ H_ 0.31423 0.412521 0.776408 0.11374
H_ H_ 0.0552903 0.376665 0.736533 0.11374
H_ H_ 0.291759 0.368542 0.740609 0.11374
H_ H_ 0.0279691 0.453516 0.675965 0.11374
H_ H_ 0.278734 0.447527 0.675431 0.11374
H_ H_ 0.0419458 0.498096 0.714216 0.11374
H_ H_ 0.276152 0.488014 0.717309 0.11374
C_ C_ 0.0873908 0.044697 0.73483 0.62841
C_ C_ 0.338016 0.0499146 0.733585 0.62841
C_ C_ 0.0799936 0.0749649 0.713205 -0.11088
C_ C_ 0.330856 0.0812378 0.7143 -0.11088
C_ C_ 0.0458914 0.0906443 0.713027 -0.11981
C_ C_ 0.293828 0.0951763 0.712477 -0.11981
C_ C_ 0.0365242 0.116442 0.691731 -0.11981
C_ C_ 0.288187 0.121437 0.691181 -0.11981
C_ C_ 0.0616924 0.123059 0.667322 -0.11088
C_ C_ 0.318042 0.133605 0.672176 -0.11088
C_ C_ 0.0963622 0.10897 0.667623 -0.11088
C_ C_ 0.356283 0.125705 0.677969 -0.11088
C_ C_ 0.107131 0.0860591 0.689878 -0.11981
C_ C_ 0.361805 0.097534 0.697103 -0.11981
C_ C_ 0.121854 0.130047 0.649003 0.50456
C_ C_ 0.378501 0.139797 0.6546 0.50456
C_ C_ 0.0673559 0.153507 0.649328 0.50456
C_ C_ 0.322111 0.158769 0.649124 0.50456
C_ C_ 0.123794 0.233486 0.587377 0.19611
C_ C_ 0.378512 0.235647 0.583998 0.19611
C_ C_ 0.109939 0.212792 0.612182 -0.11981
C_ C_ 0.364817 0.215352 0.608701 -0.11981
C_ C_ 0.117723 0.178049 0.613561 0.26597
C_ C_ 0.374968 0.181592 0.613501 0.26597
C_ C_ 0.144108 0.166062 0.593776 -0.11981
C_ C_ 0.399848 0.170011 0.592699 -0.11981
C_ C_ 0.159967 0.18929 0.571269 0.19611
C_ C_ 0.416079 0.192165 0.570776 0.19611
C_ C_ 0.217478 0.0350586 0.668305 0.62841
C_ C_ 0.473818 0.0386582 0.67436 0.62841
C_ C_ 0.242499 0.0522056 0.643621 -0.11088
C_ C_ 0.497519 0.0542858 0.649197 -0.11088
C_ C_ 0.0251473 0.032755 0.63274 -0.11981
C_ C_ 0.282422 0.0473945 0.643077 -0.11981
C_ C_ 0.0532086 0.0495824 0.611936 -0.11981
C_ C_ 0.30613 0.0609712 0.619284 -0.11981
C_ C_ 0.0432449 0.0819086 0.600871 -0.11088
C_ C_ 0.290905 0.0840489 0.599961 -0.11088
C_ C_ 0.252601 0.0940834 0.603295 -0.11088
C_ C_ 0.509873 0.0973682 0.608825 -0.11088
C_ C_ 0.227787 0.0769517 0.624321 -0.11981
C_ C_ 0.482116 0.0803167 0.631045 -0.11981
C_ C_ 0.0569336 0.0996923 0.57576 0.50456
C_ C_ 0.30721 0.105816 0.57843 0.50456
C_ C_ 0.248599 0.121306 0.583339 0.50456
C_ C_ 0.504915 0.122093 0.586915 0.50456
C_ C_ 0.0541316 0.167304 0.490728 0.19611
C_ C_ 0.315465 0.170237 0.495839 0.19611
C_ C_ 0.0467158 0.140534 0.511585 -0.11981
C_ C_ 0.303468 0.144801 0.517031 -0.11981
C_ C_ 0.0429816 0.148261 0.542718 0.26597
C_ C_ 0.289348 0.153605 0.544438 0.26597
C_ C_ 0.0391601 0.182288 0.550619 -0.11981
C_ C_ 0.282988 0.188059 0.547858 -0.11981
C_ C_ 0.0429387 0.208502 0.528314 0.19611
C_ C_ 0.287755 0.212576 0.52467 0.19611
C_ C_ 0.168067 0.199187 0.98632 0.62841
C_ C_ 0.421499 0.197613 0.981425 0.62841
C_ C_ 0.173884 0.168573 0.964305 -0.11088
C_ C_ 0.42838 0.166196 0.961946 -0.11088
C_ C_ 0.205416 0.146833 0.966963 -0.11981
C_ C_ 0.464357 0.152244 0.959872 -0.11981
C_ C_ 0.212716 0.120499 0.946114 -0.11981
C_ C_ 0.46849 0.123931 0.939878 -0.11981
C_ C_ 0.188229 0.116597 0.921509 -0.11088
C_ C_ 0.437572 0.11166 0.92289 -0.11088
C_ C_ 0.154332 0.132935 0.921784 -0.11088
C_ C_ 0.401523 0.122014 0.927049 -0.11088
C_ C_ 0.148719 0.161691 0.940673 -0.11981
C_ C_ 0.398558 0.152885 0.942689 -0.11981
C_ C_ 0.128054 0.113204 0.904606 0.50456
C_ C_ 0.377621 0.105981 0.906125 0.50456
C_ C_ 0.180827 0.0879167 0.903209 0.50456
C_ C_ 0.433911 0.0855756 0.901665 0.50456
C_ C_ 0.129943 0.0136488 0.836139 0.19611
C_ C_ 0.374023 0.00813477 0.839218 0.19611
C_ C_ 0.143484 0.0326815 0.861726 -0.11981
C_ C_ 0.388308 0.0276831 0.864161 -0.11981
C_ C_ 0.130035 0.0649944 0.866106 0.26597
C_ C_ 0.381312 0.0624472 0.867736 0.26597
C_ C_ 0.10811 0.0791617 0.84397 -0.11981
C_ C_ 0.357971 0.0774521 0.845719 -0.11981
C_ C_ 0.0953277 0.0592625 0.818227 0.19611
C_ C_ 0.347091 0.0577015 0.81991 0.19611
C_ C_ 0.0277281 0.207133 0.923912 0.62841
C_ C_ 0.279352 0.204148 0.9191 0.62841
C_ C_ 0.00457901 0.192859 0.897173 -0.11088
C_ C_ 0.25275 0.187495 0.896076 -0.11088
C_ C_ 0.216499 0.200366 0.889375 -0.11981
C_ C_ 0.46835 0.211048 0.894405 -0.11981
C_ C_ 0.193487 0.185179 0.866557 -0.11981
C_ C_ 0.445399 0.195954 0.871233 -0.11981
C_ C_ 0.204542 0.158789 0.848404 -0.11088
C_ C_ 0.458218 0.16788 0.85525 -0.11088
C_ C_ 0.997958 0.151231 0.856903 -0.11088
C_ C_ 0.242049 0.148672 0.852233 -0.11088
C_ C_ 0.0198312 0.166181 0.880554 -0.11981
C_ C_ 0.264674 0.160217 0.878063 -0.11981
C_ C_ 0.187744 0.13785 0.825778 0.50456
C_ C_ 0.439756 0.147228 0.833605 0.50456
C_ C_ 1.00379674 0.123003 0.838177 0.50456
C_ C_ 0.24405 0.119248 0.834806 0.50456
C_ C_ 0.184855 0.0677375 0.744168 0.19611
C_ C_ 0.44275 0.0778466 0.750815 0.19611
C_ C_ 0.193048 0.0954274 0.765319 -0.11981
C_ C_ 0.443558 0.10312 0.773597 -0.11981
C_ C_ 0.20506 0.0865299 0.793915 0.26597
C_ C_ 0.450937 0.093033 0.803125 0.26597
C_ C_ 0.210489 0.0515814 0.80045 -0.11981
C_ C_ 0.457334 0.0595452 0.809394 -0.11981
C_ C_ 0.199486 0.0256033 0.779817 0.19611
C_ C_ 0.457074 0.035692 0.785817 0.19611
C_ C_ 0.165456 0.449622 0.764878 0.62841
C_ C_ 0.41342 0.448898 0.764749 0.62841
C_ C_ 0.166189 0.419144 0.784117 -0.11088
C_ C_ 0.419479 0.421479 0.787611 -0.11088
C_ C_ 0.203408 0.408168 0.790161 -0.11981
C_ C_ 0.455815 0.405617 0.787084 -0.11981
C_ C_ 0.209145 0.383999 0.814191 -0.11981
C_ C_ 0.462684 0.378947 0.808455 -0.11981
C_ C_ 0.177613 0.377362 0.834635 -0.11088
C_ C_ 0.431959 0.366372 0.828042 -0.11088
C_ C_ 0.141466 0.386565 0.827889 -0.11088
C_ C_ 0.396809 0.380052 0.826736 -0.11088
C_ C_ 0.135804 0.40636 0.803449 -0.11981
C_ C_ 0.391271 0.409005 0.808772 -0.11981
C_ C_ 0.116013 0.362881 0.843817 0.50456
C_ C_ 0.373419 0.364081 0.848417 0.50456
C_ C_ 0.171805 0.348208 0.854597 0.50456
C_ C_ 0.428648 0.341682 0.850076 0.50456
C_ C_ 0.110812 0.264639 0.911489 0.19611
C_ C_ 0.371329 0.262475 0.915351 0.19611
C_ C_ 0.126919 0.284734 0.88947 -0.11981
C_ C_ 0.389218 0.28227 0.892159 -0.11981
C_ C_ 0.11709 0.319747 0.885727 0.26597
C_ C_ 0.379325 0.317096 0.887449 0.26597
C_ C_ 0.0960835 0.334437 0.909383 -0.11981
C_ C_ 0.355979 0.330628 0.909529 -0.11981
C_ C_ 0.0823677 0.313027 0.932465 0.19611
C_ C_ 0.337761 0.310413 0.9325 0.19611
C_ C_ 0.0268272 0.460653 0.829692 0.62841
C_ C_ 0.279687 0.459912 0.82736 0.62841
C_ C_ 0.00143421 0.447688 0.856322 -0.11088
C_ C_ 0.256197 0.445548 0.8537 -0.11088
C_ C_ 0.218495 0.456767 0.86041 -0.11981
C_ C_ 0.471729 0.455089 0.854722 -0.11981
C_ C_ 0.195829 0.442011 0.884481 -0.11981
C_ C_ 0.448339 0.439993 0.876966 -0.11981
C_ C_ 0.208431 0.416488 0.901891 -0.11088
C_ C_ 0.463656 0.414545 0.895817 -0.11088
C_ C_ 0.995562 0.412765 0.902692 -0.11088
C_ C_ 0.244328 0.404329 0.897081 -0.11088
C_ C_ 0.0161247 0.425315 0.878019 -0.11981
C_ C_ 0.268925 0.418285 0.87345 -0.11981
C_ C_ 0.191277 0.396087 0.923787 0.50456
C_ C_ 0.445322 0.394105 0.917509 0.50456
C_ C_ -0.00039800000000000946 0.382523 0.921017 0.50456
C_ C_ 0.245579 0.374461 0.914641 0.50456
C_ C_ 0.184562 0.325835 0.00513777 0.19611
C_ C_ 0.445073 0.328644 0.00289882 0.19611
C_ C_ 0.189192 0.351988 0.983265 -0.11981
C_ C_ 0.445166 0.351852 0.978822 -0.11981
C_ C_ 0.204219 0.343453 0.954596 0.26597
C_ C_ 0.457424 0.342781 0.950326 0.26597
C_ C_ 0.216073 0.309711 0.949803 -0.11981
C_ C_ 0.466949 0.308434 0.946148 -0.11981
C_ C_ 0.209323 0.284542 0.971483 0.19611
C_ C_ 0.456799 0.283398 0.968982 0.19611
C_ C_ 0.0775427 0.295279 0.514231 0.62841
C_ C_ 0.329958 0.29922 0.511633 0.62841
C_ C_ 0.0741817 0.328636 0.531919 -0.11088
C_ C_ 0.326072 0.326469 0.535963 -0.11088
C_ C_ 0.0394073 0.34538 0.533518 -0.11981
C_ C_ 0.288771 0.338855 0.541172 -0.11981
C_ C_ 0.0338791 0.371866 0.553843 -0.11981
C_ C_ 0.284682 0.366096 0.561638 -0.11981
C_ C_ 0.0630727 0.382265 0.5758 -0.11088
C_ C_ 0.315266 0.379178 0.579656 -0.11088
C_ C_ 0.0970211 0.368791 0.574308 -0.11088
C_ C_ 0.352623 0.368907 0.573694 -0.11088
C_ C_ 0.101463 0.338856 0.554786 -0.11981
C_ C_ 0.357036 0.339828 0.554695 -0.11981
C_ C_ 0.120228 0.381899 0.598763 0.50456
C_ C_ 0.375859 0.386729 0.595082 0.50456
C_ C_ 0.0651624 0.406836 0.598499 0.50456
C_ C_ 0.319102 0.404175 0.601331 0.50456
C_ C_ 0.124015 0.478588 0.66691 0.19611
C_ C_ 0.376235 0.484335 0.664006 0.19611
C_ C_ 0.108177 0.459554 0.642694 -0.11981
C_ C_ 0.363653 0.463874 0.639386 -0.11981
C_ C_ 0.116374 0.425412 0.638907 0.26597
C_ C_ 0.371287 0.428596 0.637418 0.26597
C_ C_ 0.144617 0.411676 0.657855 -0.11981
C_ C_ 0.389064 0.413302 0.662072 -0.11981
C_ C_ 0.16047 0.431558 0.681134 0.19611
C_ C_ 0.40129 0.434481 0.686205 0.19611
C_ C_ 0.216534 0.286786 0.577285 0.62841
C_ C_ 0.466667 0.290103 0.574731 0.62841
C_ C_ 0.242013 0.303525 0.601938 -0.11088
C_ C_ 0.488115 0.300062 0.604374 -0.11088
C_ C_ 0.0376039 0.302613 0.606615 -0.11981
C_ C_ 0.278739 0.290953 0.609858 -0.11981
C_ C_ 0.0592446 0.316624 0.630948 -0.11981
C_ C_ 0.302306 0.307314 0.632933 -0.11981
C_ C_ 0.0406317 0.33676 0.652053 -0.11088
C_ C_ 0.285847 0.32843 0.653422 -0.11088
C_ C_ 0.24958 0.338872 0.648022 -0.11088
C_ C_ 0.499173 0.344003 0.643861 -0.11088
C_ C_ 0.228573 0.329066 0.621264 -0.11981
C_ C_ 0.474158 0.32674 0.622191 -0.11981
C_ C_ 0.0578715 0.3592 0.673521 0.50456
C_ C_ 0.30276 0.351548 0.674529 0.50456
C_ C_ 0.247735 0.369871 0.664282 0.50456
C_ C_ 0.495385 0.368447 0.666237 0.50456
C_ C_ 0.0511797 0.42735 0.756186 0.19611
C_ C_ 0.302786 0.419845 0.755115 0.19611
C_ C_ 0.0508121 0.403717 0.732865 -0.11981
C_ C_ 0.292149 0.394257 0.733648 -0.11981
C_ C_ 0.0455359 0.413226 0.702511 0.26597
C_ C_ 0.285087 0.402682 0.704562 0.26597
C_ C_ 0.038634 0.446941 0.697536 -0.11981
C_ C_ 0.28282 0.437971 0.698629 -0.11981
C_ C_ 0.0444373 0.471096 0.719864 0.19611
C_ C_ 0.287789 0.46323 0.721505 0.19611
N_ N_ 0.145058 0.220712 0.565683 -0.35402
N_ N_ 0.4081 0.225092 0.566552 -0.35402
N_ N_ 0.10319 0.156546 0.638303 -0.27957
N_ N_ 0.359636 0.1611 0.638347 -0.27957
N_ N_ 0.0322272 0.120661 0.564823 -0.27957
N_ N_ 0.283448 0.129103 0.568697 -0.27957
N_ N_ 0.051783 0.201315 0.499715 -0.35402
N_ N_ 0.303923 0.203 0.49785 -0.35402
N_ N_ 0.105102 0.0261781 0.815552 -0.35402
N_ N_ 0.354505 0.0241572 0.817001 -0.35402
N_ N_ 0.14438 0.0858994 0.892141 -0.27957
N_ N_ 0.397407 0.0831157 0.891309 -0.27957
N_ N_ 0.21285 0.112993 0.81722 -0.27957
N_ N_ 0.462098 0.121187 0.824439 -0.27957
N_ N_ 0.185867 0.033981 0.751857 -0.35402
N_ N_ 0.44677 0.0444362 0.757498 -0.35402
N_ N_ 0.0890288 0.277943 0.933598 -0.35402
N_ N_ 0.345541 0.276711 0.93572 -0.35402
N_ N_ 0.133716 0.340083 0.86037 -0.27957
N_ N_ 0.3935 0.338929 0.86226 -0.27957
N_ N_ 0.213754 0.370508 0.932259 -0.27957
N_ N_ 0.468187 0.371693 0.928976 -0.27957
N_ N_ 0.195107 0.293613 -0.0008059999999999734 -0.35402
N_ N_ 0.446762 0.293587 0.997187 -0.35402
N_ N_ 0.152565 0.465292 0.683778 -0.35402
N_ N_ 0.394725 0.469577 0.687713 -0.35402
N_ N_ 0.10078 0.406563 0.612248 -0.27957
N_ N_ 0.356421 0.408939 0.611708 -0.27957
N_ N_ 0.0409103 0.388285 0.67845 -0.27957
N_ N_ 0.280328 0.37794 0.680338 -0.27957
N_ N_ 0.0506828 0.46085 0.748686 -0.35402
N_ N_ 0.299868 0.4539 0.749125 -0.35402
O_ O_ 0.113098 0.0222203 0.726441 -0.59275
O_ O_ 0.369319 0.0337512 0.728636 -0.59275
O_ O_ 0.064357 0.034801 0.756877 -0.41573
O_ O_ 0.315802 0.0409096 0.756435 -0.41573
O_ O_ 0.0385645 0.165666 0.634599 -0.59275
O_ O_ 0.294163 0.171217 0.63446 -0.59275
O_ O_ 0.159397 0.133409 0.650747 -0.59275
O_ O_ 0.415977 0.143346 0.657889 -0.59275
O_ O_ 0.182473 0.0416559 0.671421 -0.59275
O_ O_ 0.438924 0.0486818 0.678882 -0.59275
O_ O_ 0.227934 0.0133068 0.689227 -0.41573
O_ O_ 0.486828 0.0175406 0.694144 -0.41573
O_ O_ 0.216533 0.12782 0.568953 -0.59275
O_ O_ 0.472183 0.128768 0.575256 -0.59275
O_ O_ 0.0944799 0.106408 0.571408 -0.59275
O_ O_ 0.34386 0.109408 0.571492 -0.59275
O_ O_ 0.143524 0.222473 0.980008 -0.59275
O_ O_ 0.393752 0.216978 0.974881 -0.59275
O_ O_ 0.184944 0.209065 0.508992 -0.41573
O_ O_ 0.446632 0.210217 0.500595 -0.41573
O_ O_ 0.205359 0.0662698 0.894331 -0.59275
O_ O_ 0.461614 0.0703133 0.888857 -0.59275
O_ O_ 0.0914233 0.116931 0.90579 -0.59275
O_ O_ 0.340384 0.100139 0.910612 -0.59275
O_ O_ 0.0586609 0.192284 0.931428 -0.59275
O_ O_ 0.316844 0.202376 0.917135 -0.59275
O_ O_ 0.0196855 0.233601 0.941481 -0.41573
O_ O_ 0.268117 0.224996 0.93969 -0.41573
O_ O_ 0.0377703 0.118655 0.827298 -0.59275
O_ O_ 0.277298 0.109264 0.825626 -0.59275
O_ O_ 0.151092 0.135753 0.821253 -0.59275
O_ O_ 0.403587 0.147353 0.825716 -0.59275
O_ O_ 0.140774 0.473282 0.770479 -0.59275
O_ O_ 0.383508 0.466586 0.763536 -0.59275
O_ O_ 0.189974 0.455961 0.742201 -0.41573
O_ O_ 0.442695 0.459264 0.746304 -0.41573
O_ O_ 0.200247 0.334037 0.86884 -0.59275
O_ O_ 0.456931 0.320724 0.855973 -0.59275
O_ O_ 0.0788508 0.35942 0.836781 -0.59275
O_ O_ 0.335124 0.362033 0.846449 -0.59275
O_ O_ 0.0620283 0.453 0.82601 -0.59275
O_ O_ 0.317053 0.455023 0.825568 -0.59275
O_ O_ 0.0136521 0.481665 0.808658 -0.41573
O_ O_ 0.266853 0.480355 0.807332 -0.41573
O_ O_ 0.0316472 0.372222 0.929794 -0.59275
O_ O_ 0.279117 0.36403 0.925735 -0.59275
O_ O_ 0.15516 0.39532 0.931118 -0.59275
O_ O_ 0.407964 0.389704 0.920506 -0.59275
O_ O_ 0.106925 0.276135 0.518503 -0.59275
O_ O_ 0.361555 0.281736 0.51068 -0.59275
O_ O_ 0.0489081 0.288611 0.998216 -0.41573
O_ O_ 0.295926 0.292886 0.994638 -0.41573
O_ O_ 0.037766 0.42373 0.608025 -0.59275
O_ O_ 0.291456 0.42195 0.613434 -0.59275
O_ O_ 0.157353 0.380505 0.600267 -0.59275
O_ O_ 0.413376 0.392894 0.591468 -0.59275
O_ O_ 0.179884 0.294698 0.5745 -0.59275
O_ O_ 0.432484 0.30031 0.569845 -0.59275
O_ O_ 0.229766 0.265358 0.558525 -0.41573
O_ O_ 0.475646 0.265023 0.558407 -0.41573
O_ O_ 0.21501 0.378293 0.675346 -0.59275
O_ O_ 0.466785 0.387445 0.668757 -0.59275
O_ O_ 0.0885033 0.352967 0.689192 -0.59275
O_ O_ 0.339473 0.352316 0.681237 -0.59275
Cd Cd 0.184153 0.503985 0.218233 0.98062
Cd Cd 0.437451 0.502615 0.216642 0.98062
Cd Cd 0.0701676 0.741161 0.465965 0.98062
Cd Cd 0.321815 0.748303 0.469637 0.98062
Cd Cd 0.0696507 -4.94321e-05 0.281793 0.98062
Cd Cd 0.321346 0.992445 0.278701 0.98062
Cd Cd 0.177728 0.756517 0.0294374 0.98062
Cd Cd 0.429833 0.751028 0.0337206 0.98062
H_ H_ 0.022717 0.572404 0.211965 0.11374
H_ H_ 0.273095 0.589911 0.231531 0.11374
H_ H_ 0.264798 0.642946 0.201104 0.11374
H_ H_ 0.512138 0.636192 0.18389 0.11374
H_ H_ 0.142849 0.593444 0.193887 0.11374
H_ H_ 0.38462 0.580724 0.192079 0.11374
H_ H_ 0.114521 0.767077 0.0784594 0.11374
H_ H_ 0.373257 0.763026 0.0858906 0.11374
H_ H_ 0.0845703 0.732844 0.12146 0.11374
H_ H_ 0.352101 0.732026 0.130997 0.11374
H_ H_ 0.158647 0.650557 0.100184 0.11374
H_ H_ 0.396231 0.640448 0.0964141 0.11374
H_ H_ 0.18326 0.686827 0.0570756 0.11374
H_ H_ 0.403743 0.671935 0.0478274 0.11374
H_ H_ 0.0330118 0.521388 0.154857 0.11374
H_ H_ 0.298697 0.540122 0.164449 0.11374
H_ H_ 0.075762 0.55436 0.117899 0.11374
H_ H_ 0.33959 0.570338 0.126317 0.11374
H_ H_ 0.199232 0.587362 0.128683 0.11374
H_ H_ 0.451484 0.594016 0.127772 0.11374
H_ H_ 0.0662538 0.659862 0.469813 0.11374
H_ H_ 0.318484 0.663701 0.475331 0.11374
H_ H_ 0.0607712 0.623745 0.0210058 0.11374
H_ H_ 0.30769 0.623675 0.0113859 0.11374
H_ H_ 0.014292 0.702048 0.0756516 0.11374
H_ H_ 0.275032 0.699563 0.0742566 0.11374
H_ H_ 0.0279677 0.743152 0.0333691 0.11374
H_ H_ 0.284369 0.745821 0.0346078 0.11374
H_ H_ 0.234968 0.664201 0.473569 0.11374
H_ H_ 0.479038 0.664133 0.482837 0.11374
H_ H_ 0.997007 0.627435 0.433053 0.11374
H_ H_ 0.239905 0.611175 0.443558 0.11374
H_ H_ 0.121115 0.672773 0.441146 0.11374
H_ H_ 0.366583 0.669379 0.441059 0.11374
H_ H_ 0.131812 0.98968 0.333225 0.11374
H_ H_ 0.389152 0.98841 0.322735 0.11374
H_ H_ 0.163092 0.529469 0.373454 0.11374
H_ H_ 0.408224 0.520178 0.379813 0.11374
H_ H_ 0.097443 0.610225 0.342279 0.11374
H_ H_ 0.359425 0.61111 0.345564 0.11374
H_ H_ 0.0652248 0.569285 0.30575 0.11374
H_ H_ 0.329342 0.57656 0.301133 0.11374
H_ H_ 0.219071 0.732227 0.39854 0.11374
H_ H_ 0.451522 0.727901 0.400505 0.11374
H_ H_ 0.176254 0.701572 0.359909 0.11374
H_ H_ 0.41249 0.699306 0.360288 0.11374
H_ H_ 0.0466265 0.66427 0.372712 0.11374
H_ H_ 0.304144 0.657832 0.381123 0.11374
H_ H_ 0.198585 0.586478 0.222534 0.11374
H_ H_ 0.440914 0.590437 0.22058 0.11374
H_ H_ 0.205591 0.629707 0.263589 0.11374
H_ H_ 0.45465 0.631133 0.262375 0.11374
H_ H_ 0.228206 0.548511 0.323853 0.11374
H_ H_ 0.476213 0.547916 0.32066 0.11374
H_ H_ 0.201415 0.505723 0.28518 0.11374
H_ H_ 0.468406 0.506699 0.277705 0.11374
H_ H_ 0.235029 0.911164 0.274146 0.11374
H_ H_ 0.48526 0.907138 0.269986 0.11374
H_ H_ 0.99179 0.871574 0.317326 0.11374
H_ H_ 0.242971 0.863687 0.310891 0.11374
H_ H_ 0.120011 0.9163 0.310723 0.11374
H_ H_ 0.376037 0.922835 0.309268 0.11374
H_ H_ 0.136923 0.72848 0.412328 0.11374
H_ H_ 0.385213 0.73774 0.415581 0.11374
H_ H_ 0.156326 0.766443 0.369609 0.11374
H_ H_ 0.416421 0.776879 0.375888 0.11374
H_ H_ 0.091726 0.849658 0.402114 0.11374
H_ H_ 0.342445 0.857152 0.400382 0.11374
H_ H_ 0.0766931 0.81606 0.447235 0.11374
H_ H_ 0.317082 0.818763 0.443614 0.11374
H_ H_ 0.206552 0.961545 0.335483 0.11374
H_ H_ 0.469393 0.984303 0.354943 0.11374
H_ H_ 0.164287 0.933729 0.3732 0.11374
H_ H_ 0.421098 0.943002 0.379841 0.11374
H_ H_ 0.0508602 0.912282 0.37337 0.11374
H_ H_ 0.304496 0.915219 0.377172 0.11374
H_ H_ 0.193729 0.835755 0.0290399 0.11374
H_ H_ 0.447261 0.837127 0.0339197 0.11374
H_ H_ 0.208817 0.878287 0.489032 0.11374
H_ H_ 0.46316 0.884536 0.488268 0.11374
H_ H_ 0.218471 0.802293 0.424789 0.11374
H_ H_ 0.473681 0.800723 0.427371 0.11374
H_ H_ 0.21055 0.757447 0.463192 0.11374
H_ H_ 0.46022 0.758739 0.46874 0.11374
H_ H_ 0.0240734 0.841163 0.0206865 0.11374
H_ H_ 0.269166 0.83952 0.0133694 0.11374
H_ H_ 0.262205 0.891612 0.0470828 0.11374
H_ H_ 0.509819 0.872365 0.0747913 0.11374
H_ H_ 0.140022 0.831347 0.0488088 0.11374
H_ H_ 0.380896 0.82701 0.0533857 0.11374
H_ H_ 0.122326 0.514136 0.164387 0.11374
H_ H_ 0.368497 0.508604 0.169922 0.11374
H_ H_ 0.0982311 0.975851 0.12555 0.11374
H_ H_ 0.35378 0.978562 0.118096 0.11374
H_ H_ 0.164844 0.890324 0.150965 0.11374
H_ H_ 0.392795 0.886396 0.153519 0.11374
H_ H_ 0.189461 0.924086 0.195366 0.11374
H_ H_ 0.42482 0.921079 0.194597 0.11374
H_ H_ 0.0357119 0.774911 0.0981514 0.11374
H_ H_ 0.29292 0.780757 0.0874413 0.11374
H_ H_ 0.0794991 0.810066 0.134212 0.11374
H_ H_ 0.336054 0.80279 0.126315 0.11374
H_ H_ 0.203288 0.841656 0.119935 0.11374
H_ H_ 0.453705 0.838545 0.122741 0.11374
H_ H_ 0.0689199 0.916877 0.277196 0.11374
H_ H_ 0.31972 0.91132 0.273253 0.11374
H_ H_ 0.0405227 0.871368 0.239068 0.11374
H_ H_ 0.30948 0.865127 0.231138 0.11374
H_ H_ 0.0254244 0.953516 0.177142 0.11374
H_ H_ 0.290061 0.948971 0.170556 0.11374
H_ H_ 0.0318912 0.994914 0.217572 0.11374
H_ H_ 0.298266 0.990234 0.212264 0.11374
C_ C_ 0.0903741 0.55034 0.230832 0.62841
C_ C_ 0.335043 0.551403 0.236736 0.62841
C_ C_ 0.0824883 0.579685 0.208735 -0.11088
C_ C_ 0.32965 0.580138 0.214967 -0.11088
C_ C_ 0.0452466 0.58951 0.203761 -0.11981
C_ C_ 0.296821 0.598541 0.21654 -0.11981
C_ C_ 0.0357239 0.61424 0.18266 -0.11981
C_ C_ 0.289332 0.6259 0.196458 -0.11981
C_ C_ 0.0661413 0.632831 0.168169 -0.11088
C_ C_ 0.316269 0.633861 0.173451 -0.11088
C_ C_ 0.104936 0.62737 0.175178 -0.11088
C_ C_ 0.350577 0.618702 0.174167 -0.11088
C_ C_ 0.113951 0.598993 0.193092 -0.11981
C_ C_ 0.357875 0.592578 0.193933 -0.11981
C_ C_ 0.128291 0.649866 0.156927 0.50456
C_ C_ 0.377727 0.637917 0.156865 0.50456
C_ C_ 0.0680732 0.658768 0.147195 0.50456
C_ C_ 0.324895 0.66283 0.155559 0.50456
C_ C_ 0.121465 0.740449 0.0831785 0.19611
C_ C_ 0.379996 0.737417 0.0888644 0.19611
C_ C_ 0.104632 0.72123 0.106762 -0.11981
C_ C_ 0.368036 0.719121 0.11471 -0.11981
C_ C_ 0.118737 0.68877 0.114265 0.26597
C_ C_ 0.375891 0.684228 0.118956 0.26597
C_ C_ 0.146234 0.675003 0.0953372 -0.11981
C_ C_ 0.390981 0.667953 0.0953197 -0.11981
C_ C_ 0.16151 0.694523 0.0726579 0.19611
C_ C_ 0.401069 0.686477 0.0685199 0.19611
C_ C_ 0.219003 0.543318 0.173888 0.62841
C_ C_ 0.470747 0.543857 0.168516 0.62841
C_ C_ 0.242982 0.557262 0.147377 -0.11088
C_ C_ 0.495309 0.557983 0.143456 -0.11088
C_ C_ 0.0222686 0.543768 0.143613 -0.11981
C_ C_ 0.283828 0.550396 0.145856 -0.11981
C_ C_ 0.0476592 0.561788 0.121153 -0.11981
C_ C_ 0.307711 0.569167 0.124646 -0.11981
C_ C_ 0.0334854 0.589512 0.10653 -0.11088
C_ C_ 0.290688 0.588366 0.103266 -0.11088
C_ C_ 0.252837 0.595703 0.103587 -0.11088
C_ C_ 0.507153 0.601712 0.103463 -0.11088
C_ C_ 0.228637 0.58048 0.126181 -0.11981
C_ C_ 0.481303 0.584012 0.124741 -0.11981
C_ C_ 0.0503467 0.611825 0.0848931 0.50456
C_ C_ 0.30961 0.609826 0.0822365 0.50456
C_ C_ 0.25106 0.623835 0.0842054 0.50456
C_ C_ 0.50422 0.629901 0.0846844 0.50456
C_ C_ 0.0580358 0.674258 0.999075 0.19611
C_ C_ 0.315356 0.676618 0.997779 0.19611
C_ C_ 0.0523352 0.649404 0.0223371 -0.11981
C_ C_ 0.307718 0.649 0.0189865 -0.11981
C_ C_ 0.033833 0.65929 0.0493037 0.26597
C_ C_ 0.293509 0.657704 0.0475144 0.26597
C_ C_ 0.0253275 0.693748 0.0532086 -0.11981
C_ C_ 0.285316 0.692796 0.0526264 -0.11981
C_ C_ 0.0321986 0.717263 0.0297386 0.19611
C_ C_ 0.293603 0.718511 0.0303004 0.19611
C_ C_ 0.174151 0.701698 0.483402 0.62841
C_ C_ 0.41638 0.703466 0.483802 0.62841
C_ C_ 0.177646 0.670725 0.462105 -0.11088
C_ C_ 0.422465 0.6714 0.465841 -0.11088
C_ C_ 0.210658 0.652722 0.461618 -0.11981
C_ C_ 0.457542 0.654893 0.467039 -0.11981
C_ C_ 0.21524 0.624988 0.442192 -0.11981
C_ C_ 0.463127 0.624961 0.449309 -0.11981
C_ C_ 0.187127 0.617602 0.420821 -0.11088
C_ C_ 0.430605 0.611056 0.431218 -0.11088
C_ C_ 0.15502 0.635007 0.420908 -0.11088
C_ C_ 0.396993 0.625064 0.432056 -0.11088
C_ C_ 0.149246 0.662666 0.440512 -0.11981
C_ C_ 0.39292 0.657453 0.446066 -0.11981
C_ C_ 0.129728 0.620087 0.399516 0.50456
C_ C_ 0.374611 0.609675 0.409066 0.50456
C_ C_ 0.180145 0.591168 0.401535 0.50456
C_ C_ 0.429662 0.587792 0.407682 0.50456
C_ C_ 0.129089 0.519508 0.332622 0.19611
C_ C_ 0.37351 0.51293 0.337657 0.19611
C_ C_ 0.143269 0.538649 0.358324 -0.11981
C_ C_ 0.390088 0.531871 0.362864 -0.11981
C_ C_ 0.1292 0.570793 0.363622 0.26597
C_ C_ 0.381805 0.566598 0.368354 0.26597
C_ C_ 0.102577 0.583725 0.342367 -0.11981
C_ C_ 0.358593 0.581617 0.346587 -0.11981
C_ C_ 0.0888774 0.562608 0.318982 0.19611
C_ C_ 0.346225 0.563006 0.318965 0.19611
C_ C_ 0.0316763 0.708828 0.41854 0.62841
C_ C_ 0.288532 0.711371 0.422217 0.62841
C_ C_ 1.00596679 0.696326 0.392224 -0.11088
C_ C_ 0.262654 0.69432 0.397013 -0.11088
C_ C_ 0.225691 0.707062 0.390652 -0.11981
C_ C_ 0.462486 0.705005 0.38952 -0.11981
C_ C_ 0.20062 0.690354 0.369065 -0.11981
C_ C_ 0.440118 0.688911 0.366163 -0.11981
C_ C_ 0.210037 0.659328 0.355078 -0.11088
C_ C_ 0.456374 0.664697 0.348645 -0.11088
C_ C_ 0.999168 0.666281 0.345008 -0.11088
C_ C_ 0.247225 0.647856 0.360542 -0.11088
C_ C_ 0.0212903 0.677791 0.369168 -0.11981
C_ C_ 0.274433 0.665993 0.380703 -0.11981
C_ C_ 0.19793 0.642106 0.329099 0.50456
C_ C_ 0.439024 0.641607 0.3266 0.50456
C_ C_ 1.00442118 0.639153 0.326424 0.50456
C_ C_ 0.251318 0.62139 0.338986 0.50456
C_ C_ 0.199055 0.578628 0.244436 0.19611
C_ C_ 0.44568 0.578863 0.24309 0.19611
C_ C_ 0.210217 0.60341 0.266473 -0.11981
C_ C_ 0.454102 0.603092 0.266804 -0.11981
C_ C_ 0.214907 0.592756 0.296855 0.26597
C_ C_ 0.456144 0.590916 0.295477 0.26597
C_ C_ 0.214691 0.55737 0.302408 -0.11981
C_ C_ 0.461205 0.555229 0.300154 -0.11981
C_ C_ 0.205303 0.533739 0.279606 0.19611
C_ C_ 0.460486 0.532264 0.275452 0.19611
C_ C_ 0.172854 0.947116 0.265152 0.62841
C_ C_ 0.426686 0.950301 0.263913 0.62841
C_ C_ 0.175262 0.916371 0.285452 -0.11088
C_ C_ 0.432144 0.922107 0.288153 -0.11088
C_ C_ 0.210364 0.900381 0.288426 -0.11981
C_ C_ 0.466327 0.904633 0.288774 -0.11981
C_ C_ 0.214485 0.873261 0.307695 -0.11981
C_ C_ 0.471183 0.878898 0.31107 -0.11981
C_ C_ 0.180855 0.856308 0.320028 -0.11088
C_ C_ 0.440465 0.86884 0.329401 -0.11088
C_ C_ 0.14583 0.87103 0.317516 -0.11088
C_ C_ 0.408039 0.88599 0.330135 -0.11088
C_ C_ 0.142881 0.902341 0.303699 -0.11981
C_ C_ 0.403549 0.914266 0.311201 -0.11981
C_ C_ 0.125316 0.857075 0.342845 0.50456
C_ C_ 0.379584 0.867213 0.347807 0.50456
C_ C_ 0.178169 0.834282 0.344733 0.50456
C_ C_ 0.433283 0.84069 0.350112 0.50456
C_ C_ 0.126073 0.755798 0.410294 0.19611
C_ C_ 0.377132 0.765833 0.414011 0.19611
C_ C_ 0.137587 0.777574 0.385465 -0.11981
C_ C_ 0.391974 0.786083 0.390861 -0.11981
C_ C_ 0.129188 0.812332 0.383719 0.26597
C_ C_ 0.382415 0.819588 0.38677 0.26597
C_ C_ 0.105467 0.825451 0.405899 -0.11981
C_ C_ 0.35194 0.831367 0.404185 -0.11981
C_ C_ 0.0894382 0.802312 0.428868 0.19611
C_ C_ 0.337658 0.809943 0.427926 0.19611
C_ C_ 0.036979 0.964457 0.333977 0.62841
C_ C_ 0.286451 0.953749 0.324835 0.62841
C_ C_ 0.0108911 0.949373 0.357192 -0.11088
C_ C_ 0.259594 0.94052 0.35027 -0.11088
C_ C_ 0.219646 0.943738 0.350491 -0.11981
C_ C_ 0.475075 0.957844 0.357945 -0.11981
C_ C_ 0.19477 0.928521 0.373798 -0.11981
C_ C_ 0.451161 0.936971 0.377109 -0.11981
C_ C_ 0.211334 0.912618 0.39797 -0.11088
C_ C_ 0.465302 0.911749 0.395319 -0.11088
C_ C_ 1.000131163 0.908303 0.39933 -0.11088
C_ C_ 0.248839 0.906299 0.396181 -0.11088
C_ C_ 0.0238405 0.92247 0.375585 -0.11981
C_ C_ 0.274366 0.920026 0.374302 -0.11981
C_ C_ 0.1926 0.889144 0.419146 0.50456
C_ C_ 0.449014 0.887924 0.416325 0.50456
C_ C_ 1.00218791 0.876908 0.414295 0.50456
C_ C_ 0.254281 0.881923 0.419266 0.50456
C_ C_ 0.201599 0.827262 0.505511 0.19611
C_ C_ 0.450425 0.831268 0.506436 0.19611
C_ C_ 0.205372 0.852123 0.483356 -0.11981
C_ C_ 0.459372 0.857394 0.483748 -0.11981
C_ C_ 0.213023 0.84405 0.454228 0.26597
C_ C_ 0.467256 0.845252 0.453798 0.26597
C_ C_ 0.209312 0.808894 0.447504 -0.11981
C_ C_ 0.467189 0.808758 0.450342 -0.11981
C_ C_ 0.20268 0.783047 0.469005 0.19611
C_ C_ 0.455434 0.785088 0.472657 0.19611
C_ C_ 0.0853427 0.802405 0.011071 0.62841
C_ C_ 0.332081 0.803125 0.00796561 0.62841
C_ C_ 0.0823907 0.834315 0.0311316 -0.11088
C_ C_ 0.325256 0.82947 0.0317236 -0.11088
C_ C_ 0.0479334 0.848346 0.0350967 -0.11981
C_ C_ 0.290654 0.848487 0.0302892 -0.11981
C_ C_ 0.0412238 0.870513 0.0594964 -0.11981
C_ C_ 0.284548 0.874795 0.0519023 -0.11981
C_ C_ 0.0708175 0.878569 0.0794424 -0.11088
C_ C_ 0.31212 0.880889 0.0753591 -0.11088
C_ C_ 0.106612 0.869072 0.0737127 -0.11088
C_ C_ 0.345513 0.86461 0.0741411 -0.11088
C_ C_ 0.11425 0.845639 0.0500367 -0.11981
C_ C_ 0.353442 0.839438 0.0532441 -0.11981
C_ C_ 0.131904 0.889499 0.092216 0.50456
C_ C_ 0.37072 0.881431 0.0947309 0.50456
C_ C_ 0.0744876 0.903561 0.100386 0.50456
C_ C_ 0.317763 0.909573 0.0953518 0.50456
C_ C_ 0.135153 0.98474 0.163595 0.19611
C_ C_ 0.384324 0.985105 0.159782 0.19611
C_ C_ 0.117751 0.963571 0.14114 -0.11981
C_ C_ 0.368879 0.966092 0.135659 -0.11981
C_ C_ 0.125762 0.92841 0.136847 0.26597
C_ C_ 0.370747 0.929637 0.13317 0.26597
C_ C_ 0.152482 0.915547 0.156499 -0.11981
C_ C_ 0.390691 0.913592 0.155342 -0.11981
C_ C_ 0.167917 0.935919 0.180586 0.19611
C_ C_ 0.406618 0.934126 0.179689 0.19611
C_ C_ 0.215505 0.789345 0.0771987 0.62841
C_ C_ 0.464297 0.784911 0.0846398 0.62841
C_ C_ 0.242348 0.803351 0.101342 -0.11088
C_ C_ 0.488878 0.797402 0.110071 -0.11088
C_ C_ 0.0253692 0.794454 0.111054 -0.11981
C_ C_ 0.282263 0.798012 0.102116 -0.11981
C_ C_ 0.0490786 0.810406 0.134061 -0.11981
C_ C_ 0.306931 0.809255 0.12554 -0.11981
C_ C_ 0.0342971 0.834189 0.153515 -0.11088
C_ C_ 0.292565 0.830105 0.14636 -0.11088
C_ C_ 0.256303 0.842596 0.142764 -0.11088
C_ C_ 0.501867 0.835033 0.151723 -0.11088
C_ C_ 0.230448 0.828561 0.12197 -0.11981
C_ C_ 0.477661 0.823506 0.128929 -0.11981
C_ C_ 0.0543632 0.859646 0.170115 0.50456
C_ C_ 0.3139 0.85465 0.165034 0.50456
C_ C_ 0.255548 0.871099 0.162802 0.50456
C_ C_ 0.50028 0.864705 0.169467 0.50456
C_ C_ 0.0567868 0.923423 0.256181 0.19611
C_ C_ 0.31902 0.919453 0.249609 0.19611
C_ C_ 0.0488324 0.897714 0.232662 -0.11981
C_ C_ 0.30671 0.893831 0.2277 -0.11981
C_ C_ 0.0372309 0.908229 0.204349 0.26597
C_ C_ 0.29641 0.90339 0.198899 0.26597
C_ C_ 0.0316583 0.942794 0.199695 -0.11981
C_ C_ 0.299646 0.93931 0.192664 -0.11981
C_ C_ 0.0380965 0.967473 0.223039 0.19611
C_ C_ 0.306038 0.963446 0.214534 0.19611
N_ N_ 0.149002 0.726417 0.0664392 -0.35402
N_ N_ 0.399753 0.721536 0.0676046 -0.35402
N_ N_ 0.10463 0.668242 0.14009 -0.27957
N_ N_ 0.361551 0.66566 0.144747 -0.27957
N_ N_ 0.0256227 0.633794 0.0735682 -0.27957
N_ N_ 0.28494 0.631701 0.0702207 -0.27957
N_ N_ 0.0482509 0.707418 0.0026789 -0.35402
N_ N_ 0.31083 0.710597 0.00419013 -0.35402
N_ N_ 0.101579 0.529718 0.315284 -0.35402
N_ N_ 0.351812 0.528689 0.317193 -0.35402
N_ N_ 0.144986 0.592279 0.388091 -0.27957
N_ N_ 0.394773 0.586632 0.393908 -0.27957
N_ N_ 0.222124 0.618132 0.319846 -0.27957
N_ N_ 0.460257 0.614742 0.320692 -0.27957
N_ N_ 0.200323 0.54481 0.250671 -0.35402
N_ N_ 0.450568 0.543858 0.247736 -0.35402
N_ N_ 0.10214 0.769125 0.431142 -0.35402
N_ N_ 0.349972 0.776702 0.432376 -0.35402
N_ N_ 0.144042 0.833721 0.358553 -0.27957
N_ N_ 0.396625 0.839976 0.360662 -0.27957
N_ N_ 0.219545 0.869526 0.431097 -0.27957
N_ N_ 0.475207 0.868047 0.428641 -0.27957
N_ N_ 0.199787 0.792389 0.498154 -0.35402
N_ N_ 0.448135 0.795934 0.500783 -0.35402
N_ N_ 0.162272 0.971283 0.182012 -0.35402
N_ N_ 0.403365 0.968887 0.182552 -0.35402
N_ N_ 0.11215 0.91117 0.109262 -0.27957
N_ N_ 0.353431 0.908564 0.107518 -0.27957
N_ N_ 0.0305764 0.884084 0.179404 -0.27957
N_ N_ 0.290051 0.877804 0.175615 -0.27957
N_ N_ 0.0525713 0.957921 0.250318 -0.35402
N_ N_ 0.314902 0.953413 0.243092 -0.35402
O_ O_ 0.123446 0.535863 0.23115 -0.59275
O_ O_ 0.36646 0.535095 0.235016 -0.59275
O_ O_ 0.0633344 0.53931 0.250771 -0.41573
O_ O_ 0.307245 0.539053 0.255558 -0.41573
O_ O_ 0.036876 0.67128 0.134208 -0.59275
O_ O_ 0.296651 0.676479 0.141091 -0.59275
O_ O_ 0.165183 0.659293 0.161311 -0.59275
O_ O_ 0.415754 0.638595 0.160573 -0.59275
O_ O_ 0.182194 0.547406 0.175478 -0.59275
O_ O_ 0.434979 0.552472 0.170398 -0.59275
O_ O_ 0.231832 0.522854 0.19454 -0.41573
O_ O_ 0.481551 0.523566 0.189318 -0.41573
O_ O_ 0.218904 0.63187 0.0726699 -0.59275
O_ O_ 0.470352 0.636029 0.0736598 -0.59275
O_ O_ 0.0884786 0.617781 0.0822384 -0.59275
O_ O_ 0.34056 0.602111 0.0675077 -0.59275
O_ O_ 0.146028 0.721943 0.481979 -0.59275
O_ O_ 0.388607 0.723808 0.479302 -0.59275
O_ O_ 0.189306 0.711169 0.00518737 -0.41573
O_ O_ 0.438285 0.709803 0.00564114 -0.41573
O_ O_ 0.2074 0.573864 0.389682 -0.59275
O_ O_ 0.459362 0.571483 0.398664 -0.59275
O_ O_ 0.0919478 0.620613 0.401735 -0.59275
O_ O_ 0.336204 0.605585 0.411304 -0.59275
O_ O_ 0.0652441 0.696666 0.421446 -0.59275
O_ O_ 0.325141 0.706566 0.424432 -0.59275
O_ O_ 0.0214678 0.730535 0.440154 -0.41573
O_ O_ 0.274133 0.730187 0.443109 -0.41573
O_ O_ 0.0374833 0.633822 0.31534 -0.59275
O_ O_ 0.284281 0.607922 0.334231 -0.59275
O_ O_ 0.1626 0.642437 0.317427 -0.59275
O_ O_ 0.409422 0.647887 0.309414 -0.59275
O_ O_ 0.143274 0.965592 0.265919 -0.59275
O_ O_ 0.396791 0.968628 0.267242 -0.59275
O_ O_ 0.200978 0.955411 0.244809 -0.41573
O_ O_ 0.45052 0.957681 0.242217 -0.41573
O_ O_ 0.208428 0.822579 0.357516 -0.59275
O_ O_ 0.461497 0.829161 0.367264 -0.59275
O_ O_ 0.0937599 0.869817 0.353262 -0.59275
O_ O_ 0.343482 0.861906 0.338995 -0.59275
O_ O_ 0.0683742 0.95285 0.328683 -0.59275
O_ O_ 0.323602 0.96217 0.330241 -0.59275
O_ O_ 0.0255859 0.984816 0.312139 -0.41573
O_ O_ 0.271608 0.969111 0.301644 -0.41573
O_ O_ 0.0336622 0.871509 0.429908 -0.59275
O_ O_ 0.287318 0.873941 0.430477 -0.59275
O_ O_ 0.16219 0.894665 0.433719 -0.59275
O_ O_ 0.41507 0.890611 0.429136 -0.59275
O_ O_ 0.11466 0.782936 0.0115095 -0.59275
O_ O_ 0.360818 0.783698 0.00981474 -0.59275
O_ O_ 0.0563164 0.782627 0.494271 -0.41573
O_ O_ 0.311703 0.790235 0.498629 -0.41573
O_ O_ 0.0471855 0.926295 0.10337 -0.59275
O_ O_ 0.289032 0.921642 0.109984 -0.59275
O_ O_ 0.168667 0.895859 0.0874979 -0.59275
O_ O_ 0.407391 0.880484 0.0939934 -0.59275
O_ O_ 0.181932 0.799213 0.073718 -0.59275
O_ O_ 0.433236 0.798766 0.0779493 -0.59275
O_ O_ 0.227895 0.76672 0.0578299 -0.41573
O_ O_ 0.473927 0.759687 0.0671708 -0.41573
O_ O_ 0.224352 0.878971 0.175349 -0.59275
O_ O_ 0.467216 0.873738 0.179529 -0.59275
O_ O_ 0.088919 0.858168 0.18047 -0.59275
O_ O_ 0.343319 0.847021 0.181978 -0.59275
Cd Cd 0.18014 0.499723 0.717706 0.98062
Cd Cd 0.430352 0.502578 0.718444 0.98062
Cd Cd 0.063188 0.747145 0.969763 0.98062
Cd Cd 0.313707 0.749786 0.967347 0.98062
Cd Cd 0.0746803 -0.008071999999999968 0.782444 0.98062
Cd Cd 0.323456 0.994231 0.780951 0.98062
Cd Cd 0.183906 0.750066 0.529581 0.98062
Cd Cd 0.433684 0.75497 0.532207 0.98062
H_ H_ 0.0200465 0.597 0.735214 0.11374
H_ H_ 0.261275 0.578685 0.720928 0.11374
H_ H_ 0.255769 0.631735 0.684713 0.11374
H_ H_ 0.511374 0.637744 0.686877 0.11374
H_ H_ 0.128133 0.580284 0.694016 0.11374
H_ H_ 0.382786 0.583385 0.697585 0.11374
H_ H_ 0.125059 0.760514 0.588216 0.11374
H_ H_ 0.364931 0.762416 0.584739 0.11374
H_ H_ 0.0959259 0.72239 0.626364 0.11374
H_ H_ 0.338407 0.727533 0.625759 0.11374
H_ H_ 0.14877 0.636655 0.586924 0.11374
H_ H_ 0.395765 0.641818 0.592963 0.11374
H_ H_ 0.173739 0.673833 0.5479 0.11374
H_ H_ 0.426415 0.678651 0.550998 0.11374
H_ H_ 0.0377331 0.522886 0.659186 0.11374
H_ H_ 0.289693 0.532468 0.660902 0.11374
H_ H_ 0.083136 0.55162 0.616672 0.11374
H_ H_ 0.331452 0.553823 0.620181 0.11374
H_ H_ 0.197117 0.590286 0.626251 0.11374
H_ H_ 0.448051 0.579263 0.620652 0.11374
H_ H_ 0.0655293 0.665445 0.976156 0.11374
H_ H_ 0.320988 0.668617 0.973879 0.11374
H_ H_ 0.0611861 0.614893 0.508487 0.11374
H_ H_ 0.311992 0.62327 0.516659 0.11374
H_ H_ 0.0235791 0.690638 0.571305 0.11374
H_ H_ 0.274733 0.702808 0.573749 0.11374
H_ H_ 0.0404487 0.734539 0.530233 0.11374
H_ H_ 0.292178 0.744271 0.534202 0.11374
H_ H_ 0.22598 0.657353 0.97709 0.11374
H_ H_ 0.474557 0.657235 0.979073 0.11374
H_ H_ 0.990241 0.627118 0.930823 0.11374
H_ H_ 0.23431 0.616667 0.93944 0.11374
H_ H_ 0.109707 0.671005 0.944957 0.11374
H_ H_ 0.366422 0.677562 0.941781 0.11374
H_ H_ 0.138252 0.987193 0.833569 0.11374
H_ H_ 0.382633 0.98253 0.835327 0.11374
H_ H_ 0.141566 0.523083 0.880835 0.11374
H_ H_ 0.399209 0.522538 0.877731 0.11374
H_ H_ 0.0903653 0.610697 0.845297 0.11374
H_ H_ 0.338581 0.605958 0.846441 0.11374
H_ H_ 0.0697299 0.576558 0.801095 0.11374
H_ H_ 0.322837 0.574048 0.801794 0.11374
H_ H_ 0.207035 0.734778 0.899198 0.11374
H_ H_ 0.443087 0.722177 0.906493 0.11374
H_ H_ 0.157472 0.702551 0.864281 0.11374
H_ H_ 0.399875 0.684104 0.870668 0.11374
H_ H_ 0.0410356 0.662543 0.878596 0.11374
H_ H_ 0.281416 0.653829 0.882112 0.11374
H_ H_ 0.18436 0.579292 0.721121 0.11374
H_ H_ 0.438122 0.58095 0.721172 0.11374
H_ H_ 0.1721 0.624628 0.762179 0.11374
H_ H_ 0.438352 0.627906 0.761631 0.11374
H_ H_ 0.204549 0.552518 0.826934 0.11374
H_ H_ 0.460666 0.551264 0.826973 0.11374
H_ H_ 0.207169 0.507946 0.787657 0.11374
H_ H_ 0.451987 0.504841 0.788605 0.11374
H_ H_ 0.221178 0.89357 0.768213 0.11374
H_ H_ 0.486583 0.921189 0.782068 0.11374
H_ H_ 0.995594 0.875519 0.82568 0.11374
H_ H_ 0.23287 0.855146 0.810878 0.11374
H_ H_ 0.114059 0.919185 0.808335 0.11374
H_ H_ 0.361087 0.913865 0.800316 0.11374
H_ H_ 0.125717 0.741746 0.921645 0.11374
H_ H_ 0.378373 0.741423 0.919905 0.11374
H_ H_ 0.154778 0.778179 0.880722 0.11374
H_ H_ 0.400973 0.770589 0.874548 0.11374
H_ H_ 0.0882291 0.859309 0.907865 0.11374
H_ H_ 0.327211 0.851821 0.892966 0.11374
H_ H_ 0.0572155 0.821873 0.948258 0.11374
H_ H_ 0.30573 0.821154 0.938231 0.11374
H_ H_ 0.208073 0.97309 0.839841 0.11374
H_ H_ 0.460138 0.964584 0.842206 0.11374
H_ H_ 0.166411 0.946665 0.878814 0.11374
H_ H_ 0.415413 0.926637 0.876865 0.11374
H_ H_ 0.0500693 0.918015 0.875528 0.11374
H_ H_ 0.301802 0.915225 0.871734 0.11374
H_ H_ 0.20292 0.835298 0.528319 0.11374
H_ H_ 0.451859 0.838651 0.52835 0.11374
H_ H_ 0.196971 0.883766 0.994835 0.11374
H_ H_ 0.45875 0.881355 0.998721 0.11374
H_ H_ 0.218718 0.812955 0.924105 0.11374
H_ H_ 0.465416 0.809132 0.929971 0.11374
H_ H_ 0.18795 0.764949 0.956936 0.11374
H_ H_ 0.45799 0.761093 0.967755 0.11374
H_ H_ 0.0164373 0.824917 0.527802 0.11374
H_ H_ 0.271457 0.826446 0.536274 0.11374
H_ H_ 0.263763 0.878949 0.566319 0.11374
H_ H_ 0.512275 0.879444 0.559072 0.11374
H_ H_ 0.139566 0.830477 0.550546 0.11374
H_ H_ 0.389018 0.834128 0.560173 0.11374
H_ H_ 0.112546 0.502151 0.67233 0.11374
H_ H_ 0.370793 0.513133 0.663439 0.11374
H_ H_ 0.0935435 0.971065 0.621986 0.11374
H_ H_ 0.349468 0.978363 0.628538 0.11374
H_ H_ 0.138747 0.882413 0.658604 0.11374
H_ H_ 0.414495 0.894254 0.65585 0.11374
H_ H_ 0.165234 0.91755 0.700112 0.11374
H_ H_ 0.445074 0.934226 0.694811 0.11374
H_ H_ 0.041163 0.774648 0.591941 0.11374
H_ H_ 0.297355 0.783236 0.58961 0.11374
H_ H_ 0.0845156 0.807587 0.631419 0.11374
H_ H_ 0.336211 0.812521 0.627876 0.11374
H_ H_ 0.197368 0.83428 0.622047 0.11374
H_ H_ 0.45127 0.830496 0.629094 0.11374
H_ H_ 0.0677026 0.911989 0.778695 0.11374
H_ H_ 0.301804 0.911991 0.776674 0.11374
H_ H_ 0.0559285 0.867054 0.739286 0.11374
H_ H_ 0.295479 0.870182 0.735102 0.11374
H_ H_ 0.0302146 0.945295 0.677587 0.11374
H_ H_ 0.292174 0.953404 0.672556 0.11374
H_ H_ 0.0465034 0.989007 0.716114 0.11374
H_ H_ 0.301385 0.994743 0.712952 0.11374
C_ C_ 0.0793705 0.554855 0.740114 0.62841
C_ C_ 0.327915 0.54836 0.734828 0.62841
C_ C_ 0.0769321 0.585042 0.718929 -0.11088
C_ C_ 0.321563 0.576497 0.712236 -0.11088
C_ C_ 0.0449569 0.603652 0.718484 -0.11981
C_ C_ 0.285021 0.590652 0.707648 -0.11981
C_ C_ 0.0400999 0.62689 0.694956 -0.11981
C_ C_ 0.28074 0.618635 0.688045 -0.11981
C_ C_ 0.0696481 0.636839 0.676579 -0.11088
C_ C_ 0.311487 0.628001 0.669203 -0.11088
C_ C_ 0.105392 0.626266 0.682112 -0.11088
C_ C_ 0.346683 0.614834 0.671556 -0.11088
C_ C_ 0.108616 0.597256 0.700642 -0.11981
C_ C_ 0.35337 0.591672 0.694941 -0.11981
C_ C_ 0.125848 0.637509 0.656839 0.50456
C_ C_ 0.373513 0.636309 0.653151 0.50456
C_ C_ 0.0718747 0.6575 0.65117 0.50456
C_ C_ 0.317874 0.656029 0.649438 0.50456
C_ C_ 0.129348 0.733445 0.586753 0.19611
C_ C_ 0.375421 0.737299 0.587769 0.19611
C_ C_ 0.113288 0.710971 0.609404 -0.11981
C_ C_ 0.360368 0.717764 0.611984 -0.11981
C_ C_ 0.120261 0.675696 0.611511 0.26597
C_ C_ 0.367091 0.682948 0.614363 0.26597
C_ C_ 0.14351 0.66442 0.589907 -0.11981
C_ C_ 0.392382 0.669162 0.593004 -0.11981
C_ C_ 0.156423 0.686347 0.565605 0.19611
C_ C_ 0.406413 0.688445 0.568587 0.19611
C_ C_ 0.21135 0.537942 0.667851 0.62841
C_ C_ 0.467923 0.540731 0.6714 0.62841
C_ C_ 0.238404 0.555914 0.645069 -0.11088
C_ C_ 0.494124 0.555 0.645944 -0.11088
C_ C_ 0.0292426 0.545925 0.646438 -0.11981
C_ C_ 0.277075 0.546792 0.643264 -0.11981
C_ C_ 0.0554417 0.562129 0.624025 -0.11981
C_ C_ 0.302204 0.560483 0.6207 -0.11981
C_ C_ 0.0420013 0.587878 0.604725 -0.11088
C_ C_ 0.288675 0.583511 0.599878 -0.11088
C_ C_ 0.252783 0.596597 0.603349 -0.11088
C_ C_ 0.503225 0.588798 0.599775 -0.11088
C_ C_ 0.227014 0.584364 0.625722 -0.11981
C_ C_ 0.479109 0.575586 0.622522 -0.11981
C_ C_ 0.0573434 0.602002 0.578534 0.50456
C_ C_ 0.311462 0.609 0.583359 0.50456
C_ C_ 0.25334 0.625204 0.585229 0.50456
C_ C_ 0.498601 0.617594 0.580006 0.50456
C_ C_ 0.0586232 0.666345 0.492328 0.19611
C_ C_ 0.314144 0.674114 0.498041 0.19611
C_ C_ 0.0554999 0.640172 0.514696 -0.11981
C_ C_ 0.310326 0.649303 0.522078 -0.11981
C_ C_ 0.0411264 0.648089 0.543318 0.26597
C_ C_ 0.29591 0.658665 0.550257 0.26597
C_ C_ 0.0361153 0.68309 0.549019 -0.11981
C_ C_ 0.290076 0.694427 0.554392 -0.11981
C_ C_ 0.0429724 0.708195 0.526573 0.19611
C_ C_ 0.296379 0.717944 0.530422 0.19611
C_ C_ 0.160806 0.699095 0.988052 0.62841
C_ C_ 0.416109 0.701663 0.982622 0.62841
C_ C_ 0.167992 0.671784 0.965532 -0.11088
C_ C_ 0.422639 0.672717 0.961181 -0.11088
C_ C_ 0.203785 0.655726 0.961682 -0.11981
C_ C_ 0.453759 0.652104 0.962923 -0.11981
C_ C_ 0.208224 0.629377 0.939519 -0.11981
C_ C_ 0.455456 0.621455 0.945126 -0.11981
C_ C_ 0.177439 0.621769 0.919894 -0.11088
C_ C_ 0.423264 0.611259 0.92766 -0.11088
C_ C_ 0.142455 0.636902 0.921166 -0.11088
C_ C_ 0.391849 0.630518 0.926023 -0.11088
C_ C_ 0.137444 0.661062 0.943381 -0.11981
C_ C_ 0.393044 0.663115 0.93866 -0.11981
C_ C_ 0.114748 0.616723 0.904905 0.50456
C_ C_ 0.368931 0.614366 0.904135 0.50456
C_ C_ 0.171473 0.596808 0.896993 0.50456
C_ C_ 0.418779 0.587971 0.904492 0.50456
C_ C_ 0.110421 0.514807 0.839316 0.19611
C_ C_ 0.365521 0.513828 0.83693 0.19611
C_ C_ 0.126492 0.535679 0.863669 -0.11981
C_ C_ 0.379813 0.534049 0.862536 -0.11981
C_ C_ 0.119819 0.570947 0.86486 0.26597
C_ C_ 0.367461 0.565846 0.867523 0.26597
C_ C_ 0.097754 0.584225 0.842925 -0.11981
C_ C_ 0.345197 0.579332 0.845226 -0.11981
C_ C_ 0.0865928 0.564148 0.818073 0.19611
C_ C_ 0.33207 0.560473 0.82023 0.19611
C_ C_ 0.0317356 0.71436 0.920388 0.62841
C_ C_ 0.275995 0.710927 0.919385 0.62841
C_ C_ 0.00678788 0.702124 0.893833 -0.11088
C_ C_ 0.249042 0.697107 0.894383 -0.11088
C_ C_ 0.212816 0.711761 0.888194 -0.11981
C_ C_ 0.456977 0.705835 0.889956 -0.11981
C_ C_ 0.185625 0.693797 0.868589 -0.11981
C_ C_ 0.430589 0.686617 0.86902 -0.11981
C_ C_ 0.197247 0.666082 0.851393 -0.11088
C_ C_ 0.448143 0.662822 0.849177 -0.11088
C_ C_ 0.993452 0.662843 0.85255 -0.11088
C_ C_ 0.231071 0.653147 0.857615 -0.11088
C_ C_ 0.0183484 0.676751 0.873785 -0.11981
C_ C_ 0.256284 0.667074 0.878626 -0.11981
C_ C_ 0.181686 0.647894 0.826255 0.50456
C_ C_ 0.43264 0.637437 0.828946 0.50456
C_ C_ 0.994246 0.632663 0.835769 0.50456
C_ C_ 0.234235 0.6257 0.837918 0.50456
C_ C_ 0.184602 0.572533 0.745021 0.19611
C_ C_ 0.440948 0.574281 0.744661 0.19611
C_ C_ 0.182573 0.599208 0.766714 -0.11981
C_ C_ 0.444384 0.600725 0.766114 -0.11981
C_ C_ 0.194583 0.593512 0.796295 0.26597
C_ C_ 0.455787 0.591818 0.795944 0.26597
C_ C_ 0.198394 0.559016 0.803548 -0.11981
C_ C_ 0.459543 0.557668 0.803922 -0.11981
C_ C_ 0.199234 0.533494 0.781513 0.19611
C_ C_ 0.454762 0.530889 0.781502 0.19611
C_ C_ 0.164438 0.941461 0.763051 0.62841
C_ C_ 0.418972 0.951182 0.76716 0.62841
C_ C_ 0.170553 0.915108 0.787629 -0.11088
C_ C_ 0.423312 0.92001 0.78724 -0.11088
C_ C_ 0.202286 0.893992 0.787586 -0.11981
C_ C_ 0.46023 0.907025 0.791456 -0.11981
C_ C_ 0.208552 0.871176 0.810771 -0.11981
C_ C_ 0.463925 0.880982 0.814443 -0.11981
C_ C_ 0.180316 0.865861 0.833191 -0.11088
C_ C_ 0.430727 0.866658 0.829585 -0.11088
C_ C_ 0.147594 0.88496 0.832698 -0.11088
C_ C_ 0.395628 0.875337 0.821066 -0.11088
C_ C_ 0.142256 0.90873 0.809514 -0.11981
C_ C_ 0.389573 0.902626 0.801866 -0.11981
C_ C_ 0.12286 0.86982 0.854397 0.50456
C_ C_ 0.368789 0.85884 0.840831 0.50456
C_ C_ 0.173505 0.840289 0.855922 0.50456
C_ C_ 0.425821 0.842991 0.852582 0.50456
C_ C_ 0.117087 0.766952 0.918587 0.19611
C_ C_ 0.37059 0.768121 0.91623 0.19611
C_ C_ 0.133846 0.788158 0.896013 -0.11981
C_ C_ 0.384028 0.784705 0.890414 -0.11981
C_ C_ 0.121845 0.821052 0.891195 0.26597
C_ C_ 0.370283 0.816511 0.881735 0.26597
C_ C_ 0.0950638 0.832614 0.910799 -0.11981
C_ C_ 0.340841 0.828437 0.899464 -0.11981
C_ C_ 0.0837014 0.813392 0.936302 0.19611
C_ C_ 0.331718 0.813842 0.927931 0.19611
C_ C_ 0.0364002 0.9646 0.832252 0.62841
C_ C_ 0.28505 0.96035 0.82706 0.62841
C_ C_ 0.0073953 0.949696 0.855559 -0.11088
C_ C_ 0.257457 0.944168 0.849353 -0.11088
C_ C_ 0.219708 0.955194 0.854702 -0.11981
C_ C_ 0.471889 0.948802 0.859678 -0.11981
C_ C_ 0.194459 0.939312 0.875993 -0.11981
C_ C_ 0.447025 0.927418 0.877339 -0.11981
C_ C_ 0.208562 0.915992 0.895843 -0.11088
C_ C_ 0.464087 0.907543 0.89823 -0.11088
C_ C_ 0.996981 0.912389 0.900341 -0.11088
C_ C_ 0.246065 0.906363 0.892804 -0.11088
C_ C_ 0.022261 0.926707 0.877424 -0.11981
C_ C_ 0.271862 0.919293 0.870099 -0.11981
C_ C_ 0.191568 0.897789 0.919563 0.50456
C_ C_ 0.445275 0.889455 0.921874 0.50456
C_ C_ 0.999775 0.886631 0.921222 0.50456
C_ C_ 0.25073 0.882115 0.9153 0.50456
C_ C_ 0.193065 0.829318 1.00469403 0.19611
C_ C_ 0.44695 0.82865 0.0120198 0.19611
C_ C_ 0.198255 0.857901 0.985522 -0.11981
C_ C_ 0.456207 0.854636 0.990657 -0.11981
C_ C_ 0.208397 0.852475 0.955483 0.26597
C_ C_ 0.460066 0.848356 0.961114 0.26597
C_ C_ 0.207463 0.817818 0.946611 -0.11981
C_ C_ 0.460901 0.813829 0.953314 -0.11981
C_ C_ 0.192063 0.790624 0.964631 0.19611
C_ C_ 0.454469 0.78743 0.974927 0.19611
C_ C_ 0.0849644 0.793539 0.51292 0.62841
C_ C_ 0.340447 0.801661 0.517502 0.62841
C_ C_ 0.0786757 0.823096 0.534822 -0.11088
C_ C_ 0.335541 0.832748 0.537213 -0.11088
C_ C_ 0.0415316 0.83637 0.538114 -0.11981
C_ C_ 0.29739 0.84421 0.542452 -0.11981
C_ C_ 0.0360485 0.862376 0.560605 -0.11981
C_ C_ 0.29175 0.870692 0.562351 -0.11981
C_ C_ 0.0685645 0.880574 0.572812 -0.11088
C_ C_ 0.32426 0.887628 0.576076 -0.11088
C_ C_ 0.103217 0.865361 0.572495 -0.11088
C_ C_ 0.361093 0.878419 0.569881 -0.11088
C_ C_ 0.109714 0.83895 0.552802 -0.11981
C_ C_ 0.365768 0.847807 0.55533 -0.11981
C_ C_ 0.126063 0.88104 0.595464 0.50456
C_ C_ 0.382376 0.890737 0.594022 0.50456
C_ C_ 0.0713974 0.904764 0.595697 0.50456
C_ C_ 0.327372 0.908387 0.601944 0.50456
C_ C_ 0.128337 0.980617 0.661843 0.19611
C_ C_ 0.384469 0.987719 0.666207 0.19611
C_ C_ 0.113729 0.962047 0.637107 -0.11981
C_ C_ 0.368851 0.966645 0.642253 -0.11981
C_ C_ 0.118979 0.926833 0.635963 0.26597
C_ C_ 0.37968 0.931786 0.637439 0.26597
C_ C_ 0.13712 0.910511 0.659086 -0.11981
C_ C_ 0.407244 0.92032 0.658284 -0.11981
C_ C_ 0.151519 0.930516 0.682812 0.19611
C_ C_ 0.42418 0.942245 0.679777 0.19611
C_ C_ 0.21805 0.786653 0.575528 0.62841
C_ C_ 0.46978 0.790047 0.578566 0.62841
C_ C_ 0.241694 0.804402 0.600397 -0.11088
C_ C_ 0.495165 0.805325 0.603258 -0.11088
C_ C_ 0.0301485 0.796115 0.606649 -0.11981
C_ C_ 0.2828 0.799339 0.604862 -0.11981
C_ C_ 0.0567246 0.814401 0.626755 -0.11981
C_ C_ 0.306595 0.817533 0.625746 -0.11981
C_ C_ 0.0409071 0.832619 0.649365 -0.11088
C_ C_ 0.290433 0.837714 0.646846 -0.11088
C_ C_ 0.251859 0.846554 0.643108 -0.11088
C_ C_ 0.50796 0.844505 0.64559 -0.11088
C_ C_ 0.227495 0.830468 0.621084 -0.11981
C_ C_ 0.482111 0.828162 0.626139 -0.11981
C_ C_ 0.0609246 0.855097 0.669352 0.50456
C_ C_ 0.307225 0.863645 0.664697 0.50456
C_ C_ 0.248577 0.876397 0.660787 0.50456
C_ C_ 0.505499 0.871333 0.666627 0.50456
C_ C_ 0.0591747 0.918784 0.756228 0.19611
C_ C_ 0.30028 0.921179 0.753152 0.19611
C_ C_ 0.0556802 0.893667 0.733152 -0.11981
C_ C_ 0.296259 0.896898 0.729925 -0.11981
C_ C_ 0.0425934 0.902081 0.703883 0.26597
C_ C_ 0.288649 0.90775 0.700867 0.26597
C_ C_ 0.0344943 0.936478 0.699331 -0.11981
C_ C_ 0.291619 0.94314 0.695554 -0.11981
C_ C_ 0.0425418 0.960917 0.722032 0.19611
C_ C_ 0.301546 0.967129 0.718248 0.19611
N_ N_ 0.150764 0.720868 0.564415 -0.35402
N_ N_ 0.398164 0.722504 0.566206 -0.35402
N_ N_ 0.104988 0.653477 0.636297 -0.27957
N_ N_ 0.354802 0.661436 0.640547 -0.27957
N_ N_ 0.0319223 0.620454 0.565176 -0.27957
N_ N_ 0.288716 0.632893 0.573882 -0.27957
N_ N_ 0.0538918 0.699434 0.497982 -0.35402
N_ N_ 0.311057 0.708036 0.503465 -0.35402
N_ N_ 0.0944537 0.530436 0.814792 -0.35402
N_ N_ 0.341637 0.527321 0.816548 -0.35402
N_ N_ 0.13335 0.591315 0.890581 -0.27957
N_ N_ 0.383237 0.586927 0.892123 -0.27957
N_ N_ 0.203081 0.621363 0.818699 -0.27957
N_ N_ 0.460897 0.618603 0.817723 -0.27957
N_ N_ 0.191674 0.540109 0.752042 -0.35402
N_ N_ 0.442575 0.540425 0.752913 -0.35402
N_ N_ 0.0923397 0.781037 0.938598 -0.35402
N_ N_ 0.344159 0.781998 0.934541 -0.35402
N_ N_ 0.139352 0.843568 0.868348 -0.27957
N_ N_ 0.38769 0.835372 0.857003 -0.27957
N_ N_ 0.218614 0.880111 0.933821 -0.27957
N_ N_ 0.470461 0.877721 0.941062 -0.27957
N_ N_ 0.190223 0.796432 0.995016 -0.35402
N_ N_ 0.448389 0.795028 0.00347045 -0.35402
N_ N_ 0.148164 0.965605 0.684069 -0.35402
N_ N_ 0.409775 0.973916 0.685534 -0.35402
N_ N_ 0.106612 0.90487 0.610171 -0.27957
N_ N_ 0.36269 0.910299 0.613754 -0.27957
N_ N_ 0.0357018 0.876302 0.6806 -0.27957
N_ N_ 0.281563 0.883128 0.676692 -0.27957
N_ N_ 0.0552983 0.951962 0.749585 -0.35402
N_ N_ 0.306669 0.956811 0.746983 -0.35402
O_ O_ 0.109936 0.535962 0.737974 -0.59275
O_ O_ 0.359462 0.534112 0.735675 -0.59275
O_ O_ 0.0494652 0.542056 0.757843 -0.41573
O_ O_ 0.299158 0.53406 0.751567 -0.41573
O_ O_ 0.0417472 0.666675 0.637989 -0.59275
O_ O_ 0.290553 0.671574 0.636423 -0.59275
O_ O_ 0.163203 0.636595 0.654451 -0.59275
O_ O_ 0.410545 0.642901 0.660676 -0.59275
O_ O_ 0.174651 0.544972 0.667748 -0.59275
O_ O_ 0.432353 0.549034 0.671774 -0.59275
O_ O_ 0.221766 0.516738 0.689375 -0.41573
O_ O_ 0.476501 0.519284 0.692018 -0.41573
O_ O_ 0.22452 0.642792 0.579536 -0.59275
O_ O_ 0.465954 0.62668 0.568414 -0.59275
O_ O_ 0.0908934 0.596803 0.565518 -0.59275
O_ O_ 0.345606 0.604548 0.57287 -0.59275
O_ O_ 0.131623 0.718686 0.98457 -0.59275
O_ O_ 0.390368 0.723971 0.976577 -0.59275
O_ O_ 0.200695 0.709608 0.504477 -0.41573
O_ O_ 0.440067 0.711106 0.507143 -0.41573
O_ O_ 0.19672 0.575083 0.890276 -0.59275
O_ O_ 0.443589 0.565405 0.897487 -0.59275
O_ O_ 0.0792187 0.611528 0.913968 -0.59275
O_ O_ 0.331328 0.617572 0.902529 -0.59275
O_ O_ 0.0642096 0.700815 0.926198 -0.59275
O_ O_ 0.311309 0.7022 0.918818 -0.59275
O_ O_ 0.0186556 0.735072 0.940585 -0.41573
O_ O_ 0.266652 0.733863 0.939715 -0.41573
O_ O_ 0.0273487 0.623828 0.825153 -0.59275
O_ O_ 0.265529 0.610109 0.833682 -0.59275
O_ O_ 0.145839 0.647793 0.816287 -0.59275
O_ O_ 0.397035 0.636932 0.817469 -0.59275
O_ O_ 0.137744 0.962793 0.76843 -0.59275
O_ O_ 0.388063 0.968716 0.770486 -0.59275
O_ O_ 0.19391 0.954356 0.745518 -0.41573
O_ O_ 0.44588 0.962566 0.747411 -0.41573
O_ O_ 0.20184 0.828222 0.870553 -0.59275
O_ O_ 0.451398 0.824727 0.863986 -0.59275
O_ O_ 0.0843306 0.866995 0.84964 -0.59275
O_ O_ 0.332571 0.851408 0.832856 -0.59275
O_ O_ 0.0712313 0.953882 0.830912 -0.59275
O_ O_ 0.320269 0.951806 0.825174 -0.59275
O_ O_ 0.0271781 0.984968 0.81079 -0.41573
O_ O_ 0.276043 0.984459 0.808658 -0.41573
O_ O_ 0.0315698 0.883073 0.935394 -0.59275
O_ O_ 0.283296 0.874762 0.925686 -0.59275
O_ O_ 0.157877 0.903337 0.932053 -0.59275
O_ O_ 0.409029 0.892737 0.930022 -0.59275
O_ O_ 0.114286 0.77545 0.517127 -0.59275
O_ O_ 0.368606 0.781178 0.522582 -0.59275
O_ O_ 0.0554932 0.788876 0.99512 -0.41573
O_ O_ 0.303062 0.790324 0.991782 -0.41573
O_ O_ 0.0407655 0.914603 0.609447 -0.59275
O_ O_ 0.298278 0.920005 0.616407 -0.59275
O_ O_ 0.163946 0.884644 0.59523 -0.59275
O_ O_ 0.419098 0.888281 0.596087 -0.59275
O_ O_ 0.184402 0.79649 0.569822 -0.59275
O_ O_ 0.432984 0.793757 0.577164 -0.59275
O_ O_ 0.229178 0.7644 0.556645 -0.41573
O_ O_ 0.481768 0.771798 0.556075 -0.41573
O_ O_ 0.214253 0.884194 0.67043 -0.59275
O_ O_ 0.471419 0.8777 0.678791 -0.59275
O_ O_ 0.0867738 0.842324 0.687197 -0.59275
O_ O_ 0.342833 0.864283 0.673845 -0.59275
Cd Cd 0.689915 0.997937 0.218561 0.98062
Cd Cd 0.929344 -0.00037600000000004297 0.21815 0.98062
Cd Cd 0.558298 0.246799 0.470627 0.98062
Cd Cd 0.818029 0.247504 0.469587 0.98062
Cd Cd 0.571071 0.501966 0.278576 0.98062
Cd Cd 0.818867 0.497903 0.283591 0.98062
Cd Cd 0.684292 0.251751 0.0333268 0.98062
Cd Cd 0.929277 0.25485 0.0309391 0.98062
H_ H_ 0.529488 0.0941425 0.236179 0.11374
H_ H_ 0.766028 0.0895649 0.230093 0.11374
H_ H_ 0.759992 0.13891 0.192213 0.11374
H_ H_ 1.00400379 0.129609 0.185001 0.11374
H_ H_ 0.630085 0.0668606 0.187062 0.11374
H_ H_ 0.880803 0.0839418 0.199099 0.11374
H_ H_ 0.62975 0.257925 0.0879857 0.11374
H_ H_ 0.864572 0.262828 0.0822642 0.11374
H_ H_ 0.615565 0.223594 0.13637 0.11374
H_ H_ 0.844103 0.231804 0.127491 0.11374
H_ H_ 0.648616 0.13342 0.0907118 0.11374
H_ H_ 0.902965 0.144501 0.0967663 0.11374
H_ H_ 0.662023 0.16851 0.0449945 0.11374
H_ H_ 0.931169 0.180407 0.0566172 0.11374
H_ H_ 0.546284 0.0217479 0.160078 0.11374
H_ H_ 0.802281 0.0250898 0.160156 0.11374
H_ H_ 0.587007 0.0425554 0.114068 0.11374
H_ H_ 0.840721 0.0564256 0.116129 0.11374
H_ H_ 0.705973 0.0905435 0.135051 0.11374
H_ H_ 0.955335 0.0898169 0.133811 0.11374
H_ H_ 0.564279 0.166292 0.473121 0.11374
H_ H_ 0.81626 0.166742 0.472114 0.11374
H_ H_ 0.550063 0.118115 0.016267 0.11374
H_ H_ 0.807242 0.117153 0.0126506 0.11374
H_ H_ 0.535972 0.195726 0.0814341 0.11374
H_ H_ 0.779812 0.197245 0.0747525 0.11374
H_ H_ 0.555258 0.241478 0.0453095 0.11374
H_ H_ 0.798748 0.241805 0.0381057 0.11374
H_ H_ 0.733294 0.149536 0.483469 0.11374
H_ H_ 0.984633 0.163522 0.471489 0.11374
H_ H_ 0.494318 0.110694 0.437808 0.11374
H_ H_ 0.744632 0.115413 0.437007 0.11374
H_ H_ 0.618475 0.162973 0.45293 0.11374
H_ H_ 0.864325 0.168875 0.447135 0.11374
H_ H_ 0.634405 0.495719 0.326771 0.11374
H_ H_ 0.882853 0.489282 0.331128 0.11374
H_ H_ 0.651311 0.0217413 0.377372 0.11374
H_ H_ 0.919094 0.0349123 0.360911 0.11374
H_ H_ 0.595634 0.109477 0.347175 0.11374
H_ H_ 0.825057 0.0991797 0.354471 0.11374
H_ H_ 0.570304 0.0756349 0.302562 0.11374
H_ H_ 0.801084 0.0656409 0.309475 0.11374
H_ H_ 0.703499 0.213115 0.414335 0.11374
H_ H_ 0.961486 0.225446 0.399929 0.11374
H_ H_ 0.660989 0.18529 0.374221 0.11374
H_ H_ 0.914885 0.188505 0.365903 0.11374
H_ H_ 0.541204 0.158784 0.384442 0.11374
H_ H_ 0.804202 0.168656 0.373131 0.11374
H_ H_ 0.672649 0.078576 0.226352 0.11374
H_ H_ 0.93146 0.0774714 0.223307 0.11374
H_ H_ 0.683623 0.125821 0.262699 0.11374
H_ H_ 0.946495 0.12446 0.260272 0.11374
H_ H_ 0.731851 0.0569339 0.321959 0.11374
H_ H_ 0.972202 0.0516607 0.324987 0.11374
H_ H_ 0.721031 0.0105129 0.285529 0.11374
H_ H_ 0.955136 0.00429065 0.288424 0.11374
H_ H_ 0.726858 0.433092 0.283996 0.11374
H_ H_ 0.987453 0.413345 0.272622 0.11374
H_ H_ 0.486206 0.362001 0.302999 0.11374
H_ H_ 0.739692 0.393601 0.32435 0.11374
H_ H_ 0.606231 0.414925 0.298861 0.11374
H_ H_ 0.8683 0.41627 0.30569 0.11374
H_ H_ 0.621013 0.239374 0.418893 0.11374
H_ H_ 0.892374 0.241714 0.421763 0.11374
H_ H_ 0.641898 0.272782 0.371692 0.11374
H_ H_ 0.924105 0.281427 0.384552 0.11374
H_ H_ 0.5987 0.362981 0.415825 0.11374
H_ H_ 0.837612 0.353354 0.401542 0.11374
H_ H_ 0.55675 0.32135 0.446452 0.11374
H_ H_ 0.810743 0.314931 0.441881 0.11374
H_ H_ 0.716243 0.483343 0.352581 0.11374
H_ H_ 0.962278 0.470326 0.337197 0.11374
H_ H_ 0.671856 0.460902 0.39431 0.11374
H_ H_ 0.915153 0.442567 0.376321 0.11374
H_ H_ 0.545893 0.411099 0.368215 0.11374
H_ H_ 0.790449 0.406044 0.368722 0.11374
H_ H_ 0.687249 0.332737 0.0287505 0.11374
H_ H_ 0.92169 0.334313 0.0268049 0.11374
H_ H_ 0.688225 0.380364 0.491583 0.11374
H_ H_ 0.926263 0.374568 0.478781 0.11374
H_ H_ 0.714526 0.30416 0.425453 0.11374
H_ H_ 0.986925 0.306268 0.428266 0.11374
H_ H_ 0.709291 0.260406 0.463618 0.11374
H_ H_ 0.967051 0.260572 0.459676 0.11374
H_ H_ 0.512965 0.334676 0.0324451 0.11374
H_ H_ 0.76446 0.339848 0.0205334 0.11374
H_ H_ 0.756375 0.385145 0.0595615 0.11374
H_ H_ 0.00968115 0.385352 0.0565291 0.11374
H_ H_ 0.633054 0.333256 0.053645 0.11374
H_ H_ 0.879903 0.328479 0.0578759 0.11374
H_ H_ 0.629791 0.00832257 0.166982 0.11374
H_ H_ 0.86779 0.00553756 0.168651 0.11374
H_ H_ 0.595912 0.488223 0.124762 0.11374
H_ H_ 0.837887 0.477011 0.120591 0.11374
H_ H_ 0.663972 0.402365 0.148926 0.11374
H_ H_ 0.899791 0.392489 0.153891 0.11374
H_ H_ 0.690848 0.437596 0.187987 0.11374
H_ H_ 0.91966 0.426726 0.199295 0.11374
H_ H_ 0.55135 0.279182 0.0873323 0.11374
H_ H_ 0.799821 0.286439 0.089875 0.11374
H_ H_ 0.591452 0.306843 0.126492 0.11374
H_ H_ 0.836852 0.30492 0.138491 0.11374
H_ H_ 0.705032 0.345286 0.115997 0.11374
H_ H_ 0.949776 0.342756 0.117167 0.11374
H_ H_ 0.552277 0.42098 0.275518 0.11374
H_ H_ 0.818196 0.412966 0.279619 0.11374
H_ H_ 0.557234 0.374594 0.23627 0.11374
H_ H_ 0.806748 0.36524 0.242322 0.11374
H_ H_ 0.528923 0.447243 0.171008 0.11374
H_ H_ 0.783768 0.446105 0.178697 0.11374
H_ H_ 0.539456 0.49672 0.207326 0.11374
H_ H_ 0.78348 0.487345 0.219306 0.11374
C_ C_ 0.582914 0.0465576 0.235233 0.62841
C_ C_ 0.827625 0.0511037 0.235529 0.62841
C_ C_ 0.580885 0.0763767 0.21547 -0.11088
C_ C_ 0.824937 0.0808578 0.215467 -0.11088
C_ C_ 0.548885 0.096598 0.217496 -0.11981
C_ C_ 0.79033 0.0979459 0.2146 -0.11981
C_ C_ 0.543839 0.121539 0.195318 -0.11981
C_ C_ 0.785905 0.125393 0.194726 -0.11981
C_ C_ 0.571318 0.127417 0.172326 -0.11088
C_ C_ 0.815284 0.135828 0.17595 -0.11088
C_ C_ 0.605018 0.111159 0.172546 -0.11088
C_ C_ 0.849017 0.119888 0.176351 -0.11088
C_ C_ 0.608861 0.0840624 0.192156 -0.11981
C_ C_ 0.854231 0.0932581 0.19645 -0.11981
C_ C_ 0.633588 0.127733 0.153909 0.50456
C_ C_ 0.872994 0.135761 0.1549 0.50456
C_ C_ 0.580671 0.155744 0.152656 0.50456
C_ C_ 0.82018 0.1626 0.155169 0.50456
C_ C_ 0.638711 0.230851 0.0906275 0.19611
C_ C_ 0.873572 0.236985 0.0855097 0.19611
C_ C_ 0.626101 0.210807 0.115868 -0.11981
C_ C_ 0.85929 0.21751 0.111429 -0.11981
C_ C_ 0.631597 0.176455 0.116112 0.26597
C_ C_ 0.870575 0.184175 0.11739 0.26597
C_ C_ 0.646795 0.160949 0.0904231 -0.11981
C_ C_ 0.891708 0.169932 0.0937473 -0.11981
C_ C_ 0.652929 0.180197 0.0647043 0.19611
C_ C_ 0.907988 0.190691 0.0710586 0.19611
C_ C_ 0.725062 0.033955 0.172218 0.62841
C_ C_ 0.967268 0.0380825 0.171423 0.62841
C_ C_ 0.74916 0.0526395 0.148015 -0.11088
C_ C_ 0.994877 0.0529277 0.147346 -0.11088
C_ C_ 0.538477 0.0439471 0.147124 -0.11981
C_ C_ 0.788588 0.0458573 0.144608 -0.11981
C_ C_ 0.55849 0.0525712 0.119517 -0.11981
C_ C_ 0.810676 0.0608884 0.120226 -0.11981
C_ C_ 0.542722 0.0792834 0.101407 -0.11088
C_ C_ 0.794833 0.0862371 0.101963 -0.11088
C_ C_ 0.756892 0.0943856 0.106631 -0.11088
C_ C_ 0.00550093 0.0933706 0.104949 -0.11088
C_ C_ 0.734074 0.0802895 0.129941 -0.11981
C_ C_ 0.981328 0.0786922 0.127867 -0.11981
C_ C_ 0.557803 0.100024 0.0773915 0.50456
C_ C_ 0.811526 0.107808 0.081043 0.50456
C_ C_ 0.749815 0.121448 0.0869607 0.50456
C_ C_ 0.00464899 0.122422 0.0878588 0.50456
C_ C_ 0.553333 0.172069 0.999445151 0.19611
C_ C_ 0.806787 0.17085 0.995802 0.19611
C_ C_ 0.547572 0.145465 0.0215468 -0.11981
C_ C_ 0.801901 0.144149 0.0187373 -0.11981
C_ C_ 0.542416 0.15243 0.051085 0.26597
C_ C_ 0.787448 0.152749 0.0467101 0.26597
C_ C_ 0.540451 0.187625 0.0585429 -0.11981
C_ C_ 0.78275 0.188169 0.0529568 -0.11981
C_ C_ 0.550554 0.213718 0.0371103 0.19611
C_ C_ 0.793519 0.214395 0.0306087 0.19611
C_ C_ 0.674884 0.197028 0.489367 0.62841
C_ C_ 0.924342 0.204519 0.481255 0.62841
C_ C_ 0.679067 0.166948 0.466248 -0.11088
C_ C_ 0.927199 0.174744 0.459133 -0.11088
C_ C_ 0.712163 0.148966 0.46579 -0.11981
C_ C_ 0.962132 0.159999 0.455846 -0.11981
C_ C_ 0.718411 0.128321 0.440329 -0.11981
C_ C_ 0.967414 0.13386 0.432587 -0.11981
C_ C_ 0.685911 0.119065 0.420567 -0.11088
C_ C_ 0.935846 0.124996 0.412558 -0.11088
C_ C_ 0.652157 0.135721 0.422875 -0.11088
C_ C_ 0.899555 0.135402 0.419612 -0.11088
C_ C_ 0.646486 0.153099 0.449825 -0.11981
C_ C_ 0.893604 0.159873 0.443435 -0.11981
C_ C_ 0.624044 0.116394 0.405646 0.50456
C_ C_ 0.872 0.114457 0.403308 0.50456
C_ C_ 0.677652 0.090298 0.403367 0.50456
C_ C_ 0.929203 0.0970807 0.39467 0.50456
C_ C_ 0.62632 0.0188606 0.333584 0.19611
C_ C_ 0.87413 0.0174292 0.330283 0.19611
C_ C_ 0.63428 0.0333307 0.361514 -0.11981
C_ C_ 0.889147 0.0374097 0.354742 -0.11981
C_ C_ 0.623588 0.0678118 0.367214 0.26597
C_ C_ 0.874532 0.0693915 0.363306 0.26597
C_ C_ 0.599057 0.0815038 0.346508 -0.11981
C_ C_ 0.839797 0.0765583 0.34774 -0.11981
C_ C_ 0.587547 0.0624896 0.320715 0.19611
C_ C_ 0.826681 0.0574 0.321713 0.19611
C_ C_ 0.528911 0.213186 0.419716 0.62841
C_ C_ 0.783555 0.21032 0.421475 0.62841
C_ C_ 0.504938 0.199007 0.393123 -0.11088
C_ C_ 0.757492 0.194435 0.396649 -0.11088
C_ C_ 0.717206 0.197707 0.396407 -0.11981
C_ C_ 0.973608 0.207441 0.385731 -0.11981
C_ C_ 0.692974 0.184026 0.372181 -0.11981
C_ C_ 0.946503 0.188466 0.366043 -0.11981
C_ C_ 0.709349 0.166471 0.348136 -0.11088
C_ C_ 0.961227 0.167044 0.345723 -0.11088
C_ C_ 0.494422 0.156858 0.352906 -0.11088
C_ C_ 0.748641 0.161592 0.349519 -0.11088
C_ C_ 0.515766 0.168842 0.377804 -0.11981
C_ C_ 0.773132 0.174532 0.373264 -0.11981
C_ C_ 0.692162 0.145153 0.326304 0.50456
C_ C_ 0.942374 0.142661 0.325445 0.50456
C_ C_ 0.495661 0.125444 0.337298 0.50456
C_ C_ 0.752901 0.134188 0.329028 0.50456
C_ C_ 0.688284 0.0731577 0.245849 0.19611
C_ C_ 0.937791 0.0717619 0.246534 0.19611
C_ C_ 0.693407 0.101242 0.266618 -0.11981
C_ C_ 0.946682 0.0991812 0.266943 -0.11981
C_ C_ 0.711216 0.0969318 0.295109 0.26597
C_ C_ 0.957511 0.0911376 0.295573 0.26597
C_ C_ 0.722375 0.062549 0.300565 -0.11981
C_ C_ 0.959273 0.0561088 0.302966 -0.11981
C_ C_ 0.714589 0.0351458 0.279699 0.19611
C_ C_ 0.952999 0.0303074 0.28216 0.19611
C_ C_ 0.657428 0.455297 0.264915 0.62841
C_ C_ 0.9194 0.446614 0.266057 0.62841
C_ C_ 0.663655 0.427004 0.287706 -0.11088
C_ C_ 0.926834 0.41893 0.287072 -0.11088
C_ C_ 0.701449 0.418895 0.294621 -0.11981
C_ C_ 0.962093 0.404092 0.288002 -0.11981
C_ C_ 0.709296 0.396032 0.318585 -0.11981
C_ C_ 0.967767 0.377659 0.3091 -0.11981
C_ C_ 0.67858 0.381225 0.335211 -0.11088
C_ C_ 0.937933 0.366863 0.328984 -0.11088
C_ C_ 0.642117 0.390528 0.329788 -0.11088
C_ C_ 0.902502 0.380395 0.327015 -0.11088
C_ C_ 0.634682 0.408451 0.303483 -0.11981
C_ C_ 0.896545 0.407397 0.307783 -0.11981
C_ C_ 0.618446 0.367707 0.347455 0.50456
C_ C_ 0.880298 0.365533 0.349564 0.50456
C_ C_ 0.674502 0.354288 0.357546 0.50456
C_ C_ 0.933512 0.341731 0.351811 0.50456
C_ C_ 0.613701 0.266847 0.415161 0.19611
C_ C_ 0.882829 0.26825 0.419524 0.19611
C_ C_ 0.628236 0.286663 0.390077 -0.11981
C_ C_ 0.900344 0.290656 0.397501 -0.11981
C_ C_ 0.621121 0.322173 0.388679 0.26597
C_ C_ 0.883878 0.322269 0.390955 0.26597
C_ C_ 0.598129 0.335323 0.410344 -0.11981
C_ C_ 0.851751 0.329832 0.407218 -0.11981
C_ C_ 0.58104 0.313109 0.43256 0.19611
C_ C_ 0.835797 0.306885 0.429999 0.19611
C_ C_ 0.536716 0.467297 0.329812 0.62841
C_ C_ 0.786877 0.464912 0.335348 0.62841
C_ C_ 0.507915 0.448012 0.351402 -0.11088
C_ C_ 0.76304 0.452605 0.361749 -0.11088
C_ C_ 0.727052 0.464625 0.367131 -0.11981
C_ C_ 0.972963 0.454278 0.353653 -0.11981
C_ C_ 0.699591 0.451244 0.389604 -0.11981
C_ C_ 0.947081 0.439005 0.375759 -0.11981
C_ C_ 0.709634 0.42256 0.406733 -0.11088
C_ C_ 0.962802 0.418242 0.397365 -0.11088
C_ C_ 0.496162 0.414148 0.395425 -0.11088
C_ C_ 0.744722 0.408073 0.401707 -0.11088
C_ C_ 0.52053 0.426013 0.37131 -0.11981
C_ C_ 0.769911 0.42177 0.377867 -0.11981
C_ C_ 0.689898 0.400685 0.428635 0.50456
C_ C_ 0.945258 0.39612 0.420011 0.50456
C_ C_ 0.498467 0.384184 0.412812 0.50456
C_ C_ 0.741356 0.375473 0.418096 0.50456
C_ C_ 0.68422 0.325378 0.505028 0.19611
C_ C_ 0.938765 0.326874 0.49967 0.19611
C_ C_ 0.688668 0.353166 0.484662 -0.11981
C_ C_ 0.943781 0.352937 0.477457 -0.11981
C_ C_ 0.697026 0.344811 0.454439 0.26597
C_ C_ 0.966851 0.347456 0.452784 0.26597
C_ C_ 0.704195 0.310464 0.446385 -0.11981
C_ C_ 0.973639 0.313078 0.447713 -0.11981
C_ C_ 0.702891 0.285555 0.469371 0.19611
C_ C_ 0.961481 0.286493 0.467227 0.19611
C_ C_ 0.577334 0.298603 0.0192339 0.62841
C_ C_ 0.827685 0.299657 0.0157227 0.62841
C_ C_ 0.574065 0.331108 0.0375255 -0.11088
C_ C_ 0.823186 0.329249 0.034968 -0.11088
C_ C_ 0.539697 0.345804 0.0419267 -0.11981
C_ C_ 0.787736 0.345778 0.0364519 -0.11981
C_ C_ 0.53743 0.376226 0.0601105 -0.11981
C_ C_ 0.782018 0.372132 0.0582954 -0.11981
C_ C_ 0.570058 0.391638 0.0747889 -0.11088
C_ C_ 0.808681 0.376275 0.0818503 -0.11088
C_ C_ 0.603818 0.37657 0.072397 -0.11088
C_ C_ 0.843671 0.361555 0.0805741 -0.11088
C_ C_ 0.606334 0.345031 0.0559404 -0.11981
C_ C_ 0.851127 0.3374 0.0585593 -0.11981
C_ C_ 0.630194 0.393605 0.0921478 0.50456
C_ C_ 0.868952 0.381365 0.0975459 0.50456
C_ C_ 0.575693 0.418022 0.0956725 0.50456
C_ C_ 0.815254 0.404611 0.101068 0.50456
C_ C_ 0.629227 0.490935 0.16449 0.19611
C_ C_ 0.869347 0.484165 0.164292 0.19611
C_ C_ 0.614789 0.473756 0.138906 -0.11981
C_ C_ 0.856881 0.464746 0.137593 -0.11981
C_ C_ 0.626298 0.440157 0.131369 0.26597
C_ C_ 0.868904 0.431714 0.133296 0.26597
C_ C_ 0.651282 0.426244 0.152591 -0.11981
C_ C_ 0.892143 0.418388 0.156194 -0.11981
C_ C_ 0.665848 0.444358 0.177325 0.19611
C_ C_ 0.901577 0.437912 0.181889 0.19611
C_ C_ 0.71973 0.290415 0.08001 0.62841
C_ C_ 0.963274 0.285968 0.0805948 0.62841
C_ C_ 0.745579 0.307451 0.104566 -0.11088
C_ C_ 0.990635 0.304795 0.102038 -0.11088
C_ C_ 0.538358 0.297415 0.103542 -0.11981
C_ C_ 0.783746 0.296904 0.110099 -0.11981
C_ C_ 0.561264 0.313794 0.125443 -0.11981
C_ C_ 0.805782 0.307094 0.136235 -0.11981
C_ C_ 0.547326 0.333659 0.148438 -0.11088
C_ C_ 0.787928 0.329095 0.156378 -0.11088
C_ C_ 0.752522 0.342538 0.14945 -0.11088
C_ C_ 0.00621428 0.3527 0.13718 -0.11088
C_ C_ 0.731751 0.33341 0.122008 -0.11981
C_ C_ 0.978986 0.334237 0.118935 -0.11981
C_ C_ 0.564937 0.360824 0.165948 0.50456
C_ C_ 0.805573 0.350238 0.177424 0.50456
C_ C_ 0.750731 0.371629 0.166467 0.50456
C_ C_ 1.00276748 0.381349 0.156771 0.50456
C_ C_ 0.555217 0.428381 0.251387 0.19611
C_ C_ 0.8095 0.419973 0.258947 0.19611
C_ C_ 0.551826 0.401097 0.229912 -0.11981
C_ C_ 0.801474 0.392286 0.23735 -0.11981
C_ C_ 0.546321 0.408297 0.199072 0.26597
C_ C_ 0.78918 0.401285 0.208055 0.26597
C_ C_ 0.541582 0.443014 0.192427 -0.11981
C_ C_ 0.785677 0.437097 0.201858 -0.11981
C_ C_ 0.546302 0.46962 0.213852 0.19611
C_ C_ 0.790235 0.461478 0.225233 0.19611
N_ N_ 0.651763 0.215884 0.0657576 -0.35402
N_ N_ 0.897803 0.223198 0.065286 -0.35402
N_ N_ 0.616797 0.154646 0.140942 -0.27957
N_ N_ 0.856557 0.163877 0.14363 -0.27957
N_ N_ 0.533956 0.125518 0.0726825 -0.27957
N_ N_ 0.783326 0.128761 0.0714881 -0.27957
N_ N_ 0.553787 0.205954 0.00762729 -0.35402
N_ N_ 0.803505 0.205262 0.00203624 -0.35402
N_ N_ 0.599703 0.0306539 0.314731 -0.35402
N_ N_ 0.842893 0.0270992 0.314292 -0.35402
N_ N_ 0.639966 0.0890049 0.392004 -0.27957
N_ N_ 0.890301 0.0911209 0.387918 -0.27957
N_ N_ 0.718622 0.1248 0.316198 -0.27957
N_ N_ 0.967162 0.119363 0.317031 -0.27957
N_ N_ 0.697113 0.0404671 0.253595 -0.35402
N_ N_ 0.942925 0.0385393 0.253418 -0.35402
N_ N_ 0.587153 0.278478 0.433803 -0.35402
N_ N_ 0.852553 0.276888 0.436073 -0.35402
N_ N_ 0.63724 0.34469 0.364351 -0.27957
N_ N_ 0.899463 0.343769 0.366409 -0.27957
N_ N_ 0.707042 0.370987 0.432703 -0.27957
N_ N_ 0.970583 0.372854 0.428889 -0.27957
N_ N_ 0.692967 0.292997 0.498367 -0.35402
N_ N_ 0.94064 0.29355 0.491761 -0.35402
N_ N_ 0.653699 0.475975 0.183951 -0.35402
N_ N_ 0.891126 0.470816 0.185997 -0.35402
N_ N_ 0.612862 0.419426 0.106062 -0.27957
N_ N_ 0.852554 0.409168 0.110122 -0.27957
N_ N_ 0.540587 0.381412 0.176753 -0.27957
N_ N_ 0.783289 0.377 0.18399 -0.27957
N_ N_ 0.556125 0.46209 0.243303 -0.35402
N_ N_ 0.802904 0.453923 0.253464 -0.35402
O_ O_ 0.611815 0.0277854 0.231644 -0.59275
O_ O_ 0.856897 0.0303249 0.233168 -0.59275
O_ O_ 0.556192 0.0354951 0.253969 -0.41573
O_ O_ 0.799381 0.0384146 0.25311 -0.41573
O_ O_ 0.556537 0.178119 0.144066 -0.59275
O_ O_ 0.79322 0.18211 0.147115 -0.59275
O_ O_ 0.669178 0.130939 0.162678 -0.59275
O_ O_ 0.911957 0.135754 0.155907 -0.59275
O_ O_ 0.690741 0.0433033 0.179827 -0.59275
O_ O_ 0.930845 0.0436251 0.170854 -0.59275
O_ O_ 0.738565 0.0122558 0.191405 -0.41573
O_ O_ 0.975713 0.0132808 0.189167 -0.41573
O_ O_ 0.716624 0.129847 0.076542 -0.59275
O_ O_ 0.972746 0.135306 0.0775085 -0.59275
O_ O_ 0.593552 0.102065 0.0686843 -0.59275
O_ O_ 0.844812 0.103777 0.0669816 -0.59275
O_ O_ 0.64759 0.217144 0.48336 -0.59275
O_ O_ 0.891036 0.217692 0.483068 -0.59275
O_ O_ 0.697713 0.210256 0.00659614 -0.41573
O_ O_ 0.941424 0.211581 0.00558111 -0.41573
O_ O_ 0.704797 0.0740173 0.388845 -0.59275
O_ O_ 0.955832 0.0875246 0.376804 -0.59275
O_ O_ 0.586116 0.116139 0.408993 -0.59275
O_ O_ 0.836763 0.10799 0.412854 -0.59275
O_ O_ 0.561968 0.201185 0.426722 -0.59275
O_ O_ 0.820315 0.209559 0.42104 -0.59275
O_ O_ 0.515785 0.236679 0.438086 -0.41573
O_ O_ 0.770137 0.226804 0.443744 -0.41573
O_ O_ 0.527985 0.111295 0.332144 -0.59275
O_ O_ 0.784995 0.127581 0.316528 -0.59275
O_ O_ 0.655102 0.137696 0.323892 -0.59275
O_ O_ 0.905149 0.137321 0.31947 -0.59275
O_ O_ 0.626882 0.472534 0.265801 -0.59275
O_ O_ 0.886991 0.464402 0.267753 -0.59275
O_ O_ 0.684852 0.464007 0.245667 -0.41573
O_ O_ 0.945026 0.457645 0.245827 -0.41573
O_ O_ 0.701992 0.3352 0.364891 -0.59275
O_ O_ 0.964895 0.330679 0.364369 -0.59275
O_ O_ 0.58183 0.364279 0.342995 -0.59275
O_ O_ 0.842268 0.359572 0.345768 -0.59275
O_ O_ 0.572168 0.458345 0.327713 -0.59275
O_ O_ 0.819004 0.450623 0.327695 -0.59275
O_ O_ 0.526068 0.48611 0.307721 -0.41573
O_ O_ 0.776485 0.489123 0.316365 -0.41573
O_ O_ 0.531737 0.374627 0.423258 -0.59275
O_ O_ 0.771005 0.360506 0.42909 -0.59275
O_ O_ 0.652722 0.40244 0.432903 -0.59275
O_ O_ 0.908458 0.395408 0.427733 -0.59275
O_ O_ 0.607598 0.280453 0.0206448 -0.59275
O_ O_ 0.859919 0.284529 0.015499 -0.59275
O_ O_ 0.545503 0.291886 0.494286 -0.41573
O_ O_ 0.805872 0.291414 0.493585 -0.41573
O_ O_ 0.547128 0.430358 0.110074 -0.59275
O_ O_ 0.789587 0.421231 0.114699 -0.59275
O_ O_ 0.6682 0.39413 0.087691 -0.59275
O_ O_ 0.906452 0.382154 0.0937368 -0.59275
O_ O_ 0.686459 0.302291 0.0737451 -0.59275
O_ O_ 0.931981 0.30056 0.0739645 -0.59275
O_ O_ 0.729831 0.261298 0.0647919 -0.41573
O_ O_ 0.974664 0.262957 0.0622561 -0.41573
O_ O_ 0.718457 0.380465 0.178127 -0.59275
O_ O_ 0.969601 0.392903 0.163854 -0.59275
O_ O_ 0.601796 0.366975 0.16894 -0.59275
O_ O_ 0.843611 0.356029 0.180329 -0.59275
Cd Cd 0.688455 0.00627173 0.719983 0.98062
Cd Cd 0.937225 -0.0004089999999999927 0.719242 0.98062
Cd Cd 0.572118 0.245464 0.973209 0.98062
Cd Cd 0.817101 0.246898 0.969544 0.98062
Cd Cd 0.569825 0.496973 0.777347 0.98062
Cd Cd 0.812703 0.49905 0.778355 0.98062
Cd Cd 0.688026 0.250805 0.534148 0.98062
Cd Cd 0.938302 0.254107 0.528388 0.98062
H_ H_ 0.516034 0.0870047 0.730903 0.11374
H_ H_ 0.777382 0.0977638 0.72588 0.11374
H_ H_ 0.766555 0.137946 0.6851 0.11374
H_ H_ 0.0101275 0.130087 0.69204 0.11374
H_ H_ 0.636757 0.0982107 0.706549 0.11374
H_ H_ 0.888296 0.0802213 0.689334 0.11374
H_ H_ 0.622332 0.266156 0.586802 0.11374
H_ H_ 0.884903 0.265521 0.584149 0.11374
H_ H_ 0.596621 0.229522 0.630416 0.11374
H_ H_ 0.847513 0.227473 0.623972 0.11374
H_ H_ 0.640916 0.139307 0.59192 0.11374
H_ H_ 0.900495 0.141003 0.58917 0.11374
H_ H_ 0.671134 0.177006 0.551167 0.11374
H_ H_ 0.931205 0.175761 0.550091 0.11374
H_ H_ 0.551401 0.0310667 0.662664 0.11374
H_ H_ 0.788285 0.02174 0.652486 0.11374
H_ H_ 0.59152 0.0551459 0.622341 0.11374
H_ H_ 0.833704 0.0506888 0.619488 0.11374
H_ H_ 0.70613 0.0947283 0.63124 0.11374
H_ H_ 0.961836 0.0930025 0.637125 0.11374
H_ H_ 0.562895 0.164276 0.977556 0.11374
H_ H_ 0.804715 0.161917 0.971708 0.11374
H_ H_ 0.558965 0.120675 0.51174 0.11374
H_ H_ 0.808542 0.119496 0.509981 0.11374
H_ H_ 0.522853 0.193631 0.575214 0.11374
H_ H_ 0.780599 0.194968 0.575456 0.11374
H_ H_ 0.532279 0.238368 0.535505 0.11374
H_ H_ 0.790284 0.240701 0.536662 0.11374
H_ H_ 0.730208 0.161172 0.982376 0.11374
H_ H_ 0.981314 0.168814 0.974189 0.11374
H_ H_ 0.495717 0.111607 0.937753 0.11374
H_ H_ 0.740675 0.116767 0.942482 0.11374
H_ H_ 0.61346 0.169251 0.951044 0.11374
H_ H_ 0.866659 0.172851 0.942184 0.11374
H_ H_ 0.635203 0.495171 0.827573 0.11374
H_ H_ 0.883181 0.48868 0.832328 0.11374
H_ H_ 0.658382 0.0240042 0.875846 0.11374
H_ H_ 0.915657 0.0272032 0.871486 0.11374
H_ H_ 0.587686 0.105435 0.856173 0.11374
H_ H_ 0.837383 0.105029 0.852939 0.11374
H_ H_ 0.567012 0.0705041 0.811436 0.11374
H_ H_ 0.817825 0.0738275 0.807233 0.11374
H_ H_ 0.7008 0.207257 0.91801 0.11374
H_ H_ 0.955965 0.222236 0.905086 0.11374
H_ H_ 0.661288 0.176401 0.878145 0.11374
H_ H_ 0.914194 0.191946 0.866564 0.11374
H_ H_ 0.549692 0.166037 0.882467 0.11374
H_ H_ 0.802589 0.165359 0.881029 0.11374
H_ H_ 0.684599 0.0852123 0.728452 0.11374
H_ H_ 0.935224 0.0796456 0.725386 0.11374
H_ H_ 0.694253 0.128756 0.767315 0.11374
H_ H_ 0.946199 0.125819 0.764737 0.11374
H_ H_ 0.730854 0.0507962 0.822991 0.11374
H_ H_ 0.985834 0.044652 0.823991 0.11374
H_ H_ 0.714867 0.00579576 0.786434 0.11374
H_ H_ 0.974279 0.00383298 0.782087 0.11374
H_ H_ 0.733112 0.419405 0.776353 0.11374
H_ H_ 0.977555 0.422629 0.779439 0.11374
H_ H_ 0.488953 0.366011 0.808819 0.11374
H_ H_ 0.744994 0.374444 0.81199 0.11374
H_ H_ 0.615873 0.41891 0.807704 0.11374
H_ H_ 0.857529 0.426196 0.802029 0.11374
H_ H_ 0.626949 0.237835 0.917305 0.11374
H_ H_ 0.873562 0.244147 0.915192 0.11374
H_ H_ 0.647294 0.270712 0.871532 0.11374
H_ H_ 0.899029 0.281253 0.873734 0.11374
H_ H_ 0.600039 0.358449 0.907625 0.11374
H_ H_ 0.844879 0.367878 0.910037 0.11374
H_ H_ 0.573318 0.323432 0.948159 0.11374
H_ H_ 0.827692 0.333738 0.955825 0.11374
H_ H_ 0.705746 0.475091 0.84467 0.11374
H_ H_ 0.95906 0.485151 0.853895 0.11374
H_ H_ 0.659714 0.447077 0.887031 0.11374
H_ H_ 0.917429 0.457211 0.895273 0.11374
H_ H_ 0.550829 0.410296 0.861353 0.11374
H_ H_ 0.795349 0.414484 0.873838 0.11374
H_ H_ 0.678202 0.333443 0.528573 0.11374
H_ H_ 0.92403 0.331405 0.520153 0.11374
H_ H_ 0.691158 0.379295 0.985813 0.11374
H_ H_ 0.941137 0.38125 0.992773 0.11374
H_ H_ 0.726404 0.304331 0.926314 0.11374
H_ H_ 0.985287 0.306054 0.933658 0.11374
H_ H_ 0.714917 0.257875 0.964249 0.11374
H_ H_ 0.954374 0.259558 0.963782 0.11374
H_ H_ 0.520932 0.347999 0.515684 0.11374
H_ H_ 0.775597 0.347441 0.517254 0.11374
H_ H_ 0.762028 0.39099 0.558912 0.11374
H_ H_ 0.00610676 0.386883 0.554335 0.11374
H_ H_ 0.621751 0.318051 0.560063 0.11374
H_ H_ 0.881538 0.32684 0.562052 0.11374
H_ H_ 0.627921 0.0151383 0.664626 0.11374
H_ H_ 0.871863 0.0014400000000001079 0.672409 0.11374
H_ H_ 0.586472 0.471253 0.626997 0.11374
H_ H_ 0.844019 0.47084 0.621191 0.11374
H_ H_ 0.654217 0.386514 0.656442 0.11374
H_ H_ 0.904574 0.390332 0.662129 0.11374
H_ H_ 0.686355 0.430128 0.695683 0.11374
H_ H_ 0.923105 0.426079 0.703808 0.11374
H_ H_ 0.536628 0.270243 0.596398 0.11374
H_ H_ 0.804616 0.281549 0.591006 0.11374
H_ H_ 0.576849 0.298369 0.633809 0.11374
H_ H_ 0.841106 0.309185 0.632591 0.11374
H_ H_ 0.706044 0.333547 0.623715 0.11374
H_ H_ 0.957891 0.347829 0.616543 0.11374
H_ H_ 0.570309 0.410774 0.772768 0.11374
H_ H_ 0.802608 0.416189 0.781306 0.11374
H_ H_ 0.546682 0.367486 0.734971 0.11374
H_ H_ 0.795802 0.366798 0.747378 0.11374
H_ H_ 0.522974 0.448351 0.671797 0.11374
H_ H_ 0.778668 0.440702 0.674369 0.11374
H_ H_ 0.541431 0.48882 0.713952 0.11374
H_ H_ 0.80212 0.487257 0.711181 0.11374
C_ C_ 0.583454 0.0546485 0.740767 0.62841
C_ C_ 0.836504 0.0549725 0.734156 0.62841
C_ C_ 0.576704 0.0846591 0.719721 -0.11088
C_ C_ 0.831868 0.0833571 0.710452 -0.11088
C_ C_ 0.539549 0.0979561 0.716856 -0.11981
C_ C_ 0.799524 0.103358 0.710204 -0.11981
C_ C_ 0.530993 0.124073 0.695794 -0.11981
C_ C_ 0.794623 0.126793 0.686883 -0.11981
C_ C_ 0.561444 0.135078 0.676264 -0.11088
C_ C_ 0.821982 0.131506 0.665437 -0.11088
C_ C_ 0.596883 0.120803 0.676712 -0.11088
C_ C_ 0.857855 0.119173 0.669764 -0.11088
C_ C_ 0.606708 0.0977811 0.700125 -0.11981
C_ C_ 0.863748 0.09551 0.691884 -0.11981
C_ C_ 0.619287 0.136412 0.65426 0.50456
C_ C_ 0.885061 0.14038 0.65303 0.50456
C_ C_ 0.564554 0.158189 0.651734 0.50456
C_ C_ 0.82745 0.157032 0.645055 0.50456
C_ C_ 0.628773 0.239475 0.588755 0.19611
C_ C_ 0.883429 0.237229 0.582351 0.19611
C_ C_ 0.613507 0.218308 0.613178 -0.11981
C_ C_ 0.86723 0.216306 0.606592 -0.11981
C_ C_ 0.616259 0.181816 0.613489 0.26597
C_ C_ 0.879574 0.184211 0.611638 0.26597
C_ C_ 0.637742 0.168311 0.59161 -0.11981
C_ C_ 0.896124 0.168175 0.587858 -0.11981
C_ C_ 0.652934 0.189032 0.567355 0.19611
C_ C_ 0.91073 0.187588 0.563371 0.19611
C_ C_ 0.723867 0.0452928 0.675479 0.62841
C_ C_ 0.970713 0.0340751 0.670629 0.62841
C_ C_ 0.745879 0.0577326 0.64772 -0.11088
C_ C_ 0.994826 0.0495452 0.644399 -0.11088
C_ C_ 0.538011 0.0473085 0.646609 -0.11981
C_ C_ 0.780419 0.0448612 0.641846 -0.11981
C_ C_ 0.560851 0.0609901 0.622663 -0.11981
C_ C_ 0.805749 0.0607279 0.621971 -0.11981
C_ C_ 0.546286 0.0857923 0.604218 -0.11088
C_ C_ 0.793364 0.0870666 0.603832 -0.11088
C_ C_ 0.757369 0.0966908 0.605587 -0.11088
C_ C_ 0.0095432 0.0940729 0.607268 -0.11088
C_ C_ 0.733025 0.0827197 0.627159 -0.11981
C_ C_ 0.986024 0.0799255 0.630264 -0.11981
C_ C_ 0.561898 0.105985 0.58072 0.50456
C_ C_ 0.812328 0.105021 0.580824 0.50456
C_ C_ 0.756251 0.124055 0.586187 0.50456
C_ C_ 0.0032782 0.118383 0.585092 0.50456
C_ C_ 0.557591 0.171845 0.49613 0.19611
C_ C_ 0.812691 0.173002 0.495522 0.19611
C_ C_ 0.553091 0.145709 0.517944 -0.11981
C_ C_ 0.808414 0.145767 0.517282 -0.11981
C_ C_ 0.54532 0.153473 0.548358 0.26597
C_ C_ 0.79947 0.153996 0.547475 0.26597
C_ C_ 0.537157 0.187079 0.554819 -0.11981
C_ C_ 0.793258 0.188742 0.554132 -0.11981
C_ C_ 0.540599 0.212115 0.531726 0.19611
C_ C_ 0.79912 0.215321 0.531835 0.19611
C_ C_ 0.668323 0.200606 0.988923 0.62841
C_ C_ 0.915949 0.200756 0.984319 0.62841
C_ C_ 0.673251 0.170752 0.968174 -0.11088
C_ C_ 0.922595 0.172784 0.961838 -0.11088
C_ C_ 0.707558 0.152987 0.967968 -0.11981
C_ C_ 0.957431 0.157526 0.960487 -0.11981
C_ C_ 0.712923 0.127219 0.946074 -0.11981
C_ C_ 0.965083 0.132124 0.939395 -0.11981
C_ C_ 0.681838 0.115664 0.92684 -0.11088
C_ C_ 0.932912 0.116674 0.922976 -0.11088
C_ C_ 0.646772 0.128304 0.932023 -0.11088
C_ C_ 0.897035 0.129332 0.926267 -0.11088
C_ C_ 0.641898 0.157632 0.949657 -0.11981
C_ C_ 0.891317 0.159483 0.943056 -0.11981
C_ C_ 0.622214 0.110581 0.911132 0.50456
C_ C_ 0.873808 0.114839 0.905085 0.50456
C_ C_ 0.677599 0.0910266 0.9049 0.50456
C_ C_ 0.928773 0.0953653 0.898691 0.50456
C_ C_ 0.628027 0.0193245 0.835781 0.19611
C_ C_ 0.876031 0.0171016 0.835154 0.19611
C_ C_ 0.637645 0.0354047 0.8621 -0.11981
C_ C_ 0.891438 0.036588 0.859426 -0.11981
C_ C_ 0.627453 0.0684996 0.868423 0.26597
C_ C_ 0.87526 0.0684325 0.866117 0.26597
C_ C_ 0.5992 0.0808545 0.850449 -0.11981
C_ C_ 0.846529 0.0794719 0.848443 -0.11981
C_ C_ 0.589405 0.0624729 0.824304 0.19611
C_ C_ 0.837194 0.0623084 0.821819 0.19611
C_ C_ 0.535239 0.21535 0.922529 0.62841
C_ C_ 0.783689 0.210592 0.923173 0.62841
C_ C_ 0.506834 0.200732 0.898112 -0.11088
C_ C_ 0.756826 0.192756 0.90036 -0.11088
C_ C_ 0.716298 0.197102 0.899541 -0.11981
C_ C_ 0.967013 0.202115 0.891675 -0.11981
C_ C_ 0.691758 0.180911 0.876109 -0.11981
C_ C_ 0.943978 0.186066 0.869273 -0.11981
C_ C_ 0.709471 0.161768 0.854954 -0.11088
C_ C_ 0.96151 0.160517 0.851737 -0.11088
C_ C_ 0.493476 0.154136 0.86146 -0.11088
C_ C_ 0.746764 0.154407 0.857008 -0.11088
C_ C_ 0.520362 0.173495 0.880263 -0.11981
C_ C_ 0.771916 0.169925 0.878436 -0.11981
C_ C_ 0.692266 0.137848 0.836352 0.50456
C_ C_ 0.946729 0.138922 0.828024 0.50456
C_ C_ 0.496387 0.126519 0.840021 0.50456
C_ C_ 0.750556 0.127174 0.839202 0.50456
C_ C_ 0.689707 0.077966 0.749449 0.19611
C_ C_ 0.946428 0.0721417 0.747426 0.19611
C_ C_ 0.696544 0.10221 0.772472 -0.11981
C_ C_ 0.952578 0.0991029 0.769804 -0.11981
C_ C_ 0.713072 0.093473 0.79982 0.26597
C_ C_ 0.964276 0.0877043 0.798496 0.26597
C_ C_ 0.719622 0.0586608 0.803008 -0.11981
C_ C_ 0.971824 0.0530125 0.803737 -0.11981
C_ C_ 0.708198 0.0323225 0.78144 0.19611
C_ C_ 0.964518 0.0296213 0.780243 0.19611
C_ C_ 0.666844 0.446893 0.762383 0.62841
C_ C_ 0.913094 0.457466 0.765012 0.62841
C_ C_ 0.673797 0.422934 0.78794 -0.11088
C_ C_ 0.916373 0.427647 0.786543 -0.11088
C_ C_ 0.709521 0.409348 0.790878 -0.11981
C_ C_ 0.952843 0.413962 0.791912 -0.11981
C_ C_ 0.715586 0.382718 0.811183 -0.11981
C_ C_ 0.956389 0.384971 0.810646 -0.11981
C_ C_ 0.684809 0.371894 0.830899 -0.11088
C_ C_ 0.923615 0.369907 0.825377 -0.11088
C_ C_ 0.649498 0.38334 0.827419 -0.11088
C_ C_ 0.886696 0.381901 0.821201 -0.11088
C_ C_ 0.645407 0.410892 0.809189 -0.11981
C_ C_ 0.88403 0.413252 0.80302 -0.11981
C_ C_ 0.626951 0.367351 0.849314 0.50456
C_ C_ 0.863214 0.36915 0.844491 0.50456
C_ C_ 0.681587 0.342931 0.850932 0.50456
C_ C_ 0.919831 0.3476 0.849183 0.50456
C_ C_ 0.62171 0.26495 0.914934 0.19611
C_ C_ 0.868505 0.272333 0.914604 0.19611
C_ C_ 0.638007 0.28432 0.890504 -0.11981
C_ C_ 0.879381 0.292636 0.889393 -0.11981
C_ C_ 0.630239 0.319944 0.887592 0.26597
C_ C_ 0.869953 0.327174 0.886509 0.26597
C_ C_ 0.607891 0.332506 0.910174 -0.11981
C_ C_ 0.851958 0.341958 0.910751 -0.11981
C_ C_ 0.590094 0.311632 0.932746 0.19611
C_ C_ 0.839655 0.320653 0.935975 0.19611
C_ C_ 0.536402 0.465841 0.829 0.62841
C_ C_ 0.780739 0.463098 0.832729 0.62841
C_ C_ 0.511264 0.447781 0.852502 -0.11088
C_ C_ 0.752221 0.446066 0.854983 -0.11088
C_ C_ 0.714796 0.456774 0.859774 -0.11981
C_ C_ 0.966049 0.461128 0.86466 -0.11981
C_ C_ 0.68973 0.440601 0.882988 -0.11981
C_ C_ 0.943371 0.447237 0.888534 -0.11981
C_ C_ 0.705138 0.415282 0.900363 -0.11088
C_ C_ 0.95881 0.421869 0.906567 -0.11088
C_ C_ 0.500774 0.406889 0.893908 -0.11088
C_ C_ 0.741993 0.406253 0.896979 -0.11088
C_ C_ 0.526618 0.422397 0.871506 -0.11981
C_ C_ 0.765062 0.421285 0.874284 -0.11981
C_ C_ 0.686408 0.391855 0.918772 0.50456
C_ C_ 0.940848 0.397631 0.92705 0.50456
C_ C_ 0.501844 0.377331 0.914085 0.50456
C_ C_ 0.743103 0.375975 0.912461 0.50456
C_ C_ 0.693384 0.326585 0.00469828 0.19611
C_ C_ 0.935617 0.328644 0.00591482 0.19611
C_ C_ 0.695076 0.35182 0.981098 -0.11981
C_ C_ 0.94403 0.355138 0.985535 -0.11981
C_ C_ 0.707864 0.344498 0.952883 0.26597
C_ C_ 0.960057 0.347607 0.958186 0.26597
C_ C_ 0.711908 0.308695 0.946646 -0.11981
C_ C_ 0.965447 0.313064 0.950463 -0.11981
C_ C_ 0.708149 0.283954 0.969139 0.19611
C_ C_ 0.95619 0.286473 0.971937 0.19611
C_ C_ 0.5752 0.301201 0.51213 0.62841
C_ C_ 0.83268 0.301348 0.513864 0.62841
C_ C_ 0.569563 0.326142 0.537032 -0.11088
C_ C_ 0.827599 0.331643 0.535194 -0.11088
C_ C_ 0.539123 0.349549 0.534559 -0.11981
C_ C_ 0.792742 0.349202 0.536544 -0.11981
C_ C_ 0.53446 0.373631 0.557908 -0.11981
C_ C_ 0.787425 0.375671 0.558368 -0.11981
C_ C_ 0.563625 0.380364 0.578704 -0.11088
C_ C_ 0.817922 0.383924 0.578185 -0.11088
C_ C_ 0.596227 0.361754 0.579158 -0.11088
C_ C_ 0.851102 0.367135 0.577876 -0.11088
C_ C_ 0.598827 0.333587 0.558924 -0.11981
C_ C_ 0.856363 0.340164 0.558037 -0.11981
C_ C_ 0.620563 0.375519 0.601183 0.50456
C_ C_ 0.871679 0.379151 0.602177 0.50456
C_ C_ 0.569693 0.406809 0.599363 0.50456
C_ C_ 0.819324 0.40444 0.604321 0.50456
C_ C_ 0.620871 0.47847 0.668132 0.19611
C_ C_ 0.878046 0.484417 0.660735 0.19611
C_ C_ 0.606346 0.459095 0.642423 -0.11981
C_ C_ 0.863085 0.461809 0.638313 -0.11981
C_ C_ 0.618105 0.425656 0.637992 0.26597
C_ C_ 0.869435 0.426349 0.64024 0.26597
C_ C_ 0.64287 0.412327 0.660064 -0.11981
C_ C_ 0.892794 0.41557 0.663482 -0.11981
C_ C_ 0.661257 0.436148 0.681251 0.19611
C_ C_ 0.90651 0.438024 0.686012 0.19611
C_ C_ 0.725641 0.289672 0.578251 0.62841
C_ C_ 0.973465 0.293235 0.575388 0.62841
C_ C_ 0.750314 0.303591 0.603514 -0.11088
C_ C_ 0.999343 0.31042 0.601173 -0.11088
C_ C_ 0.523788 0.28796 0.610915 -0.11981
C_ C_ 0.788649 0.293534 0.60815 -0.11981
C_ C_ 0.54741 0.30408 0.632578 -0.11981
C_ C_ 0.80898 0.308457 0.632824 -0.11981
C_ C_ 0.534274 0.33005 0.649836 -0.11088
C_ C_ 0.790585 0.32578 0.656145 -0.11088
C_ C_ 0.753545 0.334611 0.651651 -0.11088
C_ C_ 0.00651018 0.350254 0.64577 -0.11088
C_ C_ 0.733187 0.323084 0.626955 -0.11981
C_ C_ 0.985375 0.337412 0.620644 -0.11981
C_ C_ 0.554187 0.353787 0.668598 0.50456
C_ C_ 0.808616 0.350556 0.675707 0.50456
C_ C_ 0.750431 0.365752 0.669229 0.50456
C_ C_ 0.00818368 0.382916 0.660221 0.50456
C_ C_ 0.556208 0.41822 0.753202 0.19611
C_ C_ 0.800782 0.422169 0.757847 0.19611
C_ C_ 0.547338 0.393899 0.72993 -0.11981
C_ C_ 0.794025 0.39379 0.738619 -0.11981
C_ C_ 0.537553 0.403199 0.700841 0.26597
C_ C_ 0.78911 0.400641 0.708217 0.26597
C_ C_ 0.531272 0.438593 0.694526 -0.11981
C_ C_ 0.785801 0.434591 0.698523 -0.11981
C_ C_ 0.543901 0.462437 0.71727 0.19611
C_ C_ 0.796552 0.461677 0.719148 0.19611
N_ N_ 0.65037 0.224148 0.566965 -0.35402
N_ N_ 0.906609 0.222587 0.561651 -0.35402
N_ N_ 0.599924 0.159877 0.639012 -0.27957
N_ N_ 0.86442 0.162681 0.636898 -0.27957
N_ N_ 0.535835 0.126331 0.569912 -0.27957
N_ N_ 0.790008 0.12847 0.570274 -0.27957
N_ N_ 0.546916 0.203078 0.503055 -0.35402
N_ N_ 0.810533 0.207555 0.504105 -0.35402
N_ N_ 0.598688 0.0295277 0.818891 -0.35402
N_ N_ 0.85236 0.0316645 0.814993 -0.35402
N_ N_ 0.640767 0.0878062 0.89488 -0.27957
N_ N_ 0.891246 0.0896547 0.890283 -0.27957
N_ N_ 0.717965 0.117846 0.824624 -0.27957
N_ N_ 0.971236 0.114049 0.822357 -0.27957
N_ N_ 0.693943 0.0429258 0.754892 -0.35402
N_ N_ 0.950331 0.0389457 0.753179 -0.35402
N_ N_ 0.601181 0.279243 0.936879 -0.35402
N_ N_ 0.845845 0.285395 0.936684 -0.35402
N_ N_ 0.644428 0.341009 0.862359 -0.27957
N_ N_ 0.883574 0.34769 0.861129 -0.27957
N_ N_ 0.711234 0.369481 0.928824 -0.27957
N_ N_ 0.966173 0.375253 0.935862 -0.27957
N_ N_ 0.69778 0.292321 -0.0024640000000000217 -0.35402
N_ N_ 0.936526 0.294423 0.996484 -0.35402
N_ N_ 0.64658 0.466744 0.687049 -0.35402
N_ N_ 0.899237 0.471769 0.684537 -0.35402
N_ N_ 0.603419 0.403857 0.61377 -0.27957
N_ N_ 0.853043 0.401965 0.618064 -0.27957
N_ N_ 0.530104 0.377448 0.678541 -0.27957
N_ N_ 0.782203 0.37256 0.68611 -0.27957
N_ N_ 0.55731 0.453487 0.745654 -0.35402
N_ N_ 0.802678 0.45507 0.749091 -0.35402
O_ O_ 0.613693 0.0371867 0.737672 -0.59275
O_ O_ 0.869067 0.0386539 0.735659 -0.59275
O_ O_ 0.555708 0.0417947 0.759586 -0.41573
O_ O_ 0.808932 0.0456111 0.754703 -0.41573
O_ O_ 0.534302 0.170563 0.637874 -0.59275
O_ O_ 0.800861 0.17395 0.633008 -0.59275
O_ O_ 0.656895 0.135311 0.65292 -0.59275
O_ O_ 0.917446 0.15432 0.665588 -0.59275
O_ O_ 0.687669 0.0523572 0.67768 -0.59275
O_ O_ 0.934223 0.0417279 0.67446 -0.59275
O_ O_ 0.735178 0.0223779 0.693506 -0.41573
O_ O_ 0.983858 0.0136035 0.691506 -0.41573
O_ O_ 0.724315 0.132049 0.573209 -0.59275
O_ O_ 0.967389 0.126064 0.578806 -0.59275
O_ O_ 0.592218 0.0995068 0.564083 -0.59275
O_ O_ 0.847074 0.100369 0.570665 -0.59275
O_ O_ 0.64114 0.222215 0.985538 -0.59275
O_ O_ 0.882978 0.215674 0.984693 -0.59275
O_ O_ 0.701006 0.207698 0.50972 -0.41573
O_ O_ 0.953143 0.215459 0.498019 -0.41573
O_ O_ 0.707464 0.0765761 0.892884 -0.59275
O_ O_ 0.957219 0.0781516 0.887657 -0.59275
O_ O_ 0.584442 0.107445 0.914452 -0.59275
O_ O_ 0.837104 0.108685 0.911718 -0.59275
O_ O_ 0.567981 0.202196 0.926793 -0.59275
O_ O_ 0.820147 0.202331 0.925635 -0.59275
O_ O_ 0.52505 0.234214 0.945579 -0.41573
O_ O_ 0.770977 0.23406 0.941866 -0.41573
O_ O_ 0.528722 0.119727 0.827765 -0.59275
O_ O_ 0.784066 0.124962 0.825729 -0.59275
O_ O_ 0.65651 0.135752 0.827457 -0.59275
O_ O_ 0.910543 0.137767 0.818257 -0.59275
O_ O_ 0.638711 0.466874 0.765313 -0.59275
O_ O_ 0.882362 0.47354 0.763107 -0.59275
O_ O_ 0.695987 0.460422 0.745918 -0.41573
O_ O_ 0.94203 0.467875 0.745112 -0.41573
O_ O_ 0.709752 0.329063 0.864785 -0.59275
O_ O_ 0.947818 0.331973 0.86346 -0.59275
O_ O_ 0.589389 0.367781 0.848822 -0.59275
O_ O_ 0.825993 0.362156 0.841405 -0.59275
O_ O_ 0.571922 0.457454 0.827492 -0.59275
O_ O_ 0.815932 0.454249 0.830203 -0.59275
O_ O_ 0.524254 0.483741 0.806814 -0.41573
O_ O_ 0.76906 0.479338 0.808893 -0.41573
O_ O_ 0.533861 0.366224 0.925636 -0.59275
O_ O_ 0.776151 0.368068 0.92268 -0.59275
O_ O_ 0.656945 0.397696 0.936602 -0.59275
O_ O_ 0.913643 0.406535 0.944529 -0.59275
O_ O_ 0.597917 0.27641 0.51618 -0.59275
O_ O_ 0.860925 0.282127 0.51618 -0.59275
O_ O_ 0.551856 0.287759 0.998768 -0.41573
O_ O_ 0.801467 0.286756 0.997092 -0.41573
O_ O_ 0.540526 0.418609 0.613208 -0.59275
O_ O_ 0.791481 0.416372 0.618994 -0.59275
O_ O_ 0.658865 0.376376 0.598691 -0.59275
O_ O_ 0.90834 0.384103 0.599078 -0.59275
O_ O_ 0.687983 0.291476 0.576785 -0.59275
O_ O_ 0.938772 0.301911 0.571314 -0.59275
O_ O_ 0.738534 0.267601 0.558762 -0.41573
O_ O_ 0.982912 0.267982 0.558424 -0.41573
O_ O_ 0.719658 0.381779 0.673444 -0.59275
O_ O_ 0.977567 0.399713 0.664811 -0.59275
O_ O_ 0.585869 0.347236 0.682148 -0.59275
O_ O_ 0.843068 0.349425 0.687339 -0.59275
Cd Cd 0.680253 0.505703 0.217993 0.98062
Cd Cd 0.926222 0.498512 0.221764 0.98062
Cd Cd 0.56214 0.746204 0.467858 0.98062
Cd Cd 0.820502 0.746287 0.471089 0.98062
Cd Cd 0.571789 0.9955 0.280074 0.98062
Cd Cd 0.817093 0.995276 0.278921 0.98062
Cd Cd 0.679393 0.755688 0.0270176 0.98062
Cd Cd 0.930467 0.753467 0.0314317 0.98062
H_ H_ 0.518558 0.590729 0.220181 0.11374
H_ H_ 0.769319 0.579123 0.226246 0.11374
H_ H_ 0.757007 0.619811 0.182055 0.11374
H_ H_ 0.00606187 0.617348 0.176502 0.11374
H_ H_ 0.637727 0.587593 0.196328 0.11374
H_ H_ 0.891532 0.593697 0.205768 0.11374
H_ H_ 0.626831 0.763007 0.077946 0.11374
H_ H_ 0.861242 0.758683 0.0769799 0.11374
H_ H_ 0.602661 0.729601 0.124014 0.11374
H_ H_ 0.833931 0.72419 0.118887 0.11374
H_ H_ 0.652477 0.642492 0.0909251 0.11374
H_ H_ 0.898776 0.63928 0.0959155 0.11374
H_ H_ 0.677931 0.675648 0.0474832 0.11374
H_ H_ 0.929798 0.674586 0.0563492 0.11374
H_ H_ 0.546606 0.531347 0.153429 0.11374
H_ H_ 0.784702 0.517753 0.149383 0.11374
H_ H_ 0.586344 0.558095 0.109715 0.11374
H_ H_ 0.826839 0.542222 0.106748 0.11374
H_ H_ 0.700365 0.588797 0.130055 0.11374
H_ H_ 0.941319 0.583066 0.12939 0.11374
H_ H_ 0.566401 0.665986 0.473186 0.11374
H_ H_ 0.810284 0.659167 0.47302 0.11374
H_ H_ 0.563606 0.627669 0.0113595 0.11374
H_ H_ 0.80156 0.618854 0.00659393 0.11374
H_ H_ 0.527434 0.702859 0.0735762 0.11374
H_ H_ 0.782249 0.692025 0.0727854 0.11374
H_ H_ 0.530555 0.746645 0.0345718 0.11374
H_ H_ 0.799441 0.73996 0.0369182 0.11374
H_ H_ 0.715684 0.649916 0.490322 0.11374
H_ H_ 0.987378 0.670306 0.475296 0.11374
H_ H_ 0.491011 0.613789 0.449505 0.11374
H_ H_ 0.725371 0.602626 0.451594 0.11374
H_ H_ 0.630175 0.687606 0.432093 0.11374
H_ H_ 0.866107 0.666444 0.447021 0.11374
H_ H_ 0.637415 0.992782 0.328198 0.11374
H_ H_ 0.885214 0.992568 0.325878 0.11374
H_ H_ 0.660799 0.532244 0.366211 0.11374
H_ H_ 0.915148 0.526631 0.373544 0.11374
H_ H_ 0.608534 0.621589 0.332607 0.11374
H_ H_ 0.846581 0.609134 0.350174 0.11374
H_ H_ 0.582626 0.58269 0.291575 0.11374
H_ H_ 0.818061 0.570794 0.306217 0.11374
H_ H_ 0.719859 0.735745 0.39872 0.11374
H_ H_ 0.954401 0.721306 0.406222 0.11374
H_ H_ 0.673332 0.707103 0.360091 0.11374
H_ H_ 0.914098 0.701181 0.363424 0.11374
H_ H_ 0.531903 0.650094 0.391345 0.11374
H_ H_ 0.793292 0.653266 0.388333 0.11374
H_ H_ 0.683307 0.589693 0.22402 0.11374
H_ H_ 0.951149 0.578418 0.219642 0.11374
H_ H_ 0.691244 0.631999 0.261806 0.11374
H_ H_ 0.971721 0.629307 0.252385 0.11374
H_ H_ 0.735823 0.555402 0.318295 0.11374
H_ H_ 0.961751 0.557326 0.326801 0.11374
H_ H_ 0.714189 0.509908 0.283208 0.11374
H_ H_ 0.936966 0.510435 0.291799 0.11374
H_ H_ 0.733689 0.909346 0.274544 0.11374
H_ H_ 0.985876 0.923568 0.282899 0.11374
H_ H_ 0.498495 0.866308 0.312085 0.11374
H_ H_ 0.740777 0.861559 0.307562 0.11374
H_ H_ 0.619672 0.921864 0.304949 0.11374
H_ H_ 0.865708 0.920046 0.306769 0.11374
H_ H_ 0.616468 0.736767 0.410519 0.11374
H_ H_ 0.885349 0.736058 0.420984 0.11374
H_ H_ 0.644514 0.77335 0.368538 0.11374
H_ H_ 0.905496 0.763698 0.370541 0.11374
H_ H_ 0.599692 0.862135 0.410363 0.11374
H_ H_ 0.852029 0.854326 0.402097 0.11374
H_ H_ 0.572185 0.823042 0.450492 0.11374
H_ H_ 0.820667 0.821025 0.442722 0.11374
H_ H_ 0.707113 0.965855 0.335329 0.11374
H_ H_ 0.963223 0.980025 0.347518 0.11374
H_ H_ 0.664638 0.940055 0.376747 0.11374
H_ H_ 0.916677 0.944149 0.380078 0.11374
H_ H_ 0.559812 0.920515 0.374448 0.11374
H_ H_ 0.799469 0.902679 0.362575 0.11374
H_ H_ 0.684153 0.835652 0.0203999 0.11374
H_ H_ 0.946013 0.836462 0.0328975 0.11374
H_ H_ 0.695867 0.881404 0.486242 0.11374
H_ H_ 0.943353 0.880917 0.479028 0.11374
H_ H_ 0.711215 0.797562 0.423517 0.11374
H_ H_ 0.978848 0.797602 0.424159 0.11374
H_ H_ 0.69832 0.755204 0.464336 0.11374
H_ H_ 0.969679 0.759393 0.469296 0.11374
H_ H_ 0.512517 0.823068 0.0407728 0.11374
H_ H_ 0.769547 0.843871 0.0160144 0.11374
H_ H_ 0.765477 0.888891 0.0571072 0.11374
H_ H_ 0.0124668 0.879438 0.0630798 0.11374
H_ H_ 0.636778 0.834365 0.0500639 0.11374
H_ H_ 0.882571 0.829804 0.0524965 0.11374
H_ H_ 0.622825 0.516305 0.170155 0.11374
H_ H_ 0.862158 0.510658 0.166498 0.11374
H_ H_ 0.605029 0.973405 0.122731 0.11374
H_ H_ 0.854787 0.973434 0.11955 0.11374
H_ H_ 0.652106 0.883578 0.159616 0.11374
H_ H_ 0.90298 0.884312 0.15357 0.11374
H_ H_ 0.682818 0.923263 0.200879 0.11374
H_ H_ 0.920729 0.919556 0.200101 0.11374
H_ H_ 0.536758 0.768552 0.0982965 0.11374
H_ H_ 0.795088 0.773911 0.0869248 0.11374
H_ H_ 0.583098 0.79783 0.137836 0.11374
H_ H_ 0.83679 0.802607 0.129251 0.11374
H_ H_ 0.704479 0.842357 0.113754 0.11374
H_ H_ 0.943708 0.838912 0.123973 0.11374
H_ H_ 0.564135 0.9131 0.282142 0.11374
H_ H_ 0.81552 0.912525 0.274778 0.11374
H_ H_ 0.554705 0.863231 0.244659 0.11374
H_ H_ 0.802193 0.866279 0.236222 0.11374
H_ H_ 0.526655 0.939953 0.179605 0.11374
H_ H_ 0.780937 0.946374 0.171929 0.11374
H_ H_ 0.553877 0.985226 0.211393 0.11374
H_ H_ 0.794668 0.987959 0.211802 0.11374
C_ C_ 0.582651 0.552432 0.230495 0.62841
C_ C_ 0.836028 0.546997 0.232079 0.62841
C_ C_ 0.578745 0.583468 0.210728 -0.11088
C_ C_ 0.83022 0.57706 0.212786 -0.11088
C_ C_ 0.543322 0.599648 0.208539 -0.11981
C_ C_ 0.79242 0.588776 0.209824 -0.11981
C_ C_ 0.538959 0.623221 0.185521 -0.11981
C_ C_ 0.785373 0.614498 0.188339 -0.11981
C_ C_ 0.568345 0.633498 0.165767 -0.11088
C_ C_ 0.816116 0.629256 0.171614 -0.11088
C_ C_ 0.603821 0.619016 0.168237 -0.11088
C_ C_ 0.853006 0.620685 0.177242 -0.11088
C_ C_ 0.609967 0.59695 0.193083 -0.11981
C_ C_ 0.861441 0.596518 0.199629 -0.11981
C_ C_ 0.629203 0.636104 0.147752 0.50456
C_ C_ 0.877726 0.641067 0.157904 0.50456
C_ C_ 0.573145 0.657372 0.143363 0.50456
C_ C_ 0.819131 0.652987 0.148241 0.50456
C_ C_ 0.632028 0.736676 0.0817981 0.19611
C_ C_ 0.87403 0.734449 0.0832054 0.19611
C_ C_ 0.618213 0.717425 0.10705 -0.11981
C_ C_ 0.856395 0.713351 0.106519 -0.11981
C_ C_ 0.626269 0.683416 0.11013 0.26597
C_ C_ 0.867931 0.679839 0.112514 0.26597
C_ C_ 0.646611 0.668785 0.0887087 -0.11981
C_ C_ 0.89085 0.664757 0.0919041 -0.11981
C_ C_ 0.659865 0.687556 0.0642166 0.19611
C_ C_ 0.906977 0.686125 0.068342 0.19611
C_ C_ 0.717039 0.538879 0.170144 0.62841
C_ C_ 0.953914 0.533643 0.168555 0.62841
C_ C_ 0.738091 0.548211 0.141061 -0.11088
C_ C_ 0.981222 0.5497 0.1455 -0.11088
C_ C_ 0.533621 0.548938 0.137823 -0.11981
C_ C_ 0.775544 0.536179 0.134487 -0.11981
C_ C_ 0.555774 0.564405 0.114169 -0.11981
C_ C_ 0.800473 0.552611 0.113422 -0.11981
C_ C_ 0.544063 0.593034 0.101066 -0.11088
C_ C_ 0.785975 0.579424 0.0960584 -0.11088
C_ C_ 0.752023 0.592529 0.102203 -0.11088
C_ C_ -0.004430000000000045 0.593629 0.106133 -0.11088
C_ C_ 0.726467 0.576726 0.124193 -0.11981
C_ C_ 0.9707 0.576952 0.127301 -0.11981
C_ C_ 0.561662 0.613637 0.0788099 0.50456
C_ C_ 0.803464 0.599007 0.0728199 0.50456
C_ C_ 0.749144 0.619491 0.0807214 0.50456
C_ C_ -0.007812999999999959 0.622259 0.0870544 0.50456
C_ C_ 0.555106 0.679714 0.993671 0.19611
C_ C_ 0.806646 0.673579 0.99216 0.19611
C_ C_ 0.553214 0.653145 0.0155904 -0.11981
C_ C_ 0.802513 0.645573 0.0130537 -0.11981
C_ C_ 0.542151 0.662388 0.0454121 0.26597
C_ C_ 0.791417 0.652261 0.0427147 0.26597
C_ C_ 0.537006 0.69738 0.0520784 -0.11981
C_ C_ 0.78502 0.686509 0.0501542 -0.11981
C_ C_ 0.540025 0.721967 0.0286831 0.19611
C_ C_ 0.79905 0.713806 0.0301144 0.19611
C_ C_ 0.662681 0.699789 0.487581 0.62841
C_ C_ 0.919149 0.705063 0.483489 0.62841
C_ C_ 0.673271 0.674104 0.462829 -0.11088
C_ C_ 0.924805 0.672654 0.465594 -0.11088
C_ C_ 0.700852 0.649787 0.468991 -0.11981
C_ C_ 0.963174 0.659622 0.46155 -0.11981
C_ C_ 0.702227 0.619112 0.450157 -0.11981
C_ C_ 0.967821 0.63273 0.440444 -0.11981
C_ C_ 0.676414 0.613742 0.426192 -0.11088
C_ C_ 0.936699 0.619253 0.423784 -0.11088
C_ C_ 0.649032 0.635448 0.421408 -0.11088
C_ C_ 0.901524 0.631816 0.426817 -0.11088
C_ C_ 0.64917 0.668153 0.436789 -0.11981
C_ C_ 0.894614 0.658956 0.446175 -0.11981
C_ C_ 0.631389 0.626366 0.394324 0.50456
C_ C_ 0.877224 0.610898 0.407556 0.50456
C_ C_ 0.67337 0.588997 0.402071 0.50456
C_ C_ 0.93377 0.593417 0.401556 0.50456
C_ C_ 0.623047 0.521848 0.329676 0.19611
C_ C_ 0.876956 0.516399 0.334979 0.19611
C_ C_ 0.640645 0.541545 0.352409 -0.11981
C_ C_ 0.891986 0.535739 0.360015 -0.11981
C_ C_ 0.634525 0.577576 0.355802 0.26597
C_ C_ 0.882649 0.569479 0.364971 0.26597
C_ C_ 0.613598 0.592367 0.332965 -0.11981
C_ C_ 0.857195 0.583438 0.345047 -0.11981
C_ C_ 0.597881 0.571929 0.309823 0.19611
C_ C_ 0.839283 0.562692 0.321152 0.19611
C_ C_ 0.526022 0.713061 0.420734 0.62841
C_ C_ 0.781274 0.708824 0.426458 0.62841
C_ C_ 0.499458 0.694793 0.397138 -0.11088
C_ C_ 0.757114 0.69532 0.398983 -0.11088
C_ C_ 0.723494 0.711136 0.388875 -0.11981
C_ C_ 0.966019 0.70512 0.388865 -0.11981
C_ C_ 0.700983 0.697426 0.364852 -0.11981
C_ C_ 0.943651 0.692725 0.364548 -0.11981
C_ C_ 0.712159 0.668084 0.350939 -0.11088
C_ C_ 0.96138 0.672236 0.342102 -0.11088
C_ C_ 0.487336 0.649746 0.357549 -0.11088
C_ C_ 0.744069 0.652645 0.359361 -0.11088
C_ C_ 0.509904 0.664312 0.38209 -0.11981
C_ C_ 0.769469 0.666425 0.381844 -0.11981
C_ C_ 0.701255 0.653403 0.32396 0.50456
C_ C_ 0.94387 0.648282 0.3221 0.50456
C_ C_ 0.491389 0.619435 0.339982 0.50456
C_ C_ 0.747438 0.624621 0.339256 0.50456
C_ C_ 0.685676 0.579786 0.246946 0.19611
C_ C_ 0.94894 0.575944 0.243206 0.19611
C_ C_ 0.69237 0.604739 0.267883 -0.11981
C_ C_ 0.961238 0.603971 0.261875 -0.11981
C_ C_ 0.710393 0.597653 0.295307 0.26597
C_ C_ 0.963345 0.597817 0.29279 0.26597
C_ C_ 0.71663 0.561661 0.301511 -0.11981
C_ C_ 0.953565 0.564342 0.304614 -0.11981
C_ C_ 0.707737 0.536554 0.279774 0.19611
C_ C_ 0.943079 0.536208 0.284425 0.19611
C_ C_ 0.673704 0.947952 0.263964 0.62841
C_ C_ 0.916921 0.951577 0.265738 0.62841
C_ C_ 0.675491 0.917247 0.284622 -0.11088
C_ C_ 0.923111 0.921157 0.287383 -0.11088
C_ C_ 0.708062 0.897748 0.285647 -0.11981
C_ C_ 0.959626 0.908068 0.290947 -0.11981
C_ C_ 0.711158 0.869119 0.304717 -0.11981
C_ C_ 0.964506 0.880001 0.311773 -0.11981
C_ C_ 0.678039 0.85905 0.321914 -0.11088
C_ C_ 0.931791 0.864169 0.32619 -0.11088
C_ C_ 0.646018 0.876354 0.321476 -0.11088
C_ C_ 0.896095 0.875496 0.32117 -0.11088
C_ C_ 0.644134 0.906149 0.303195 -0.11981
C_ C_ 0.891515 0.906548 0.305762 -0.11981
C_ C_ 0.623795 0.866468 0.3473 0.50456
C_ C_ 0.871737 0.858459 0.342273 0.50456
C_ C_ 0.674398 0.837912 0.347166 0.50456
C_ C_ 0.927421 0.836281 0.34585 0.50456
C_ C_ 0.615172 0.764796 0.412171 0.19611
C_ C_ 0.870408 0.75965 0.41258 0.19611
C_ C_ 0.632325 0.7852 0.388686 -0.11981
C_ C_ 0.887693 0.778428 0.387359 -0.11981
C_ C_ 0.626657 0.821322 0.387844 0.26597
C_ C_ 0.876621 0.811832 0.380017 0.26597
C_ C_ 0.606002 0.834772 0.411085 -0.11981
C_ C_ 0.852742 0.827169 0.401443 -0.11981
C_ C_ 0.590568 0.813984 0.434754 0.19611
C_ C_ 0.83786 0.807856 0.425595 0.19611
C_ C_ 0.536336 0.961576 0.327405 0.62841
C_ C_ 0.781872 0.952578 0.323054 0.62841
C_ C_ 0.51303 0.94724 0.354012 -0.11088
C_ C_ 0.757418 0.936598 0.346693 -0.11088
C_ C_ 0.718638 0.945524 0.350162 -0.11981
C_ C_ 0.973507 0.956518 0.359114 -0.11981
C_ C_ 0.6952 0.932304 0.374387 -0.11981
C_ C_ 0.948083 0.939599 0.380341 -0.11981
C_ C_ 0.708513 0.904309 0.390719 -0.11088
C_ C_ 0.962682 0.915735 0.401055 -0.11088
C_ C_ 0.505947 0.90782 0.397205 -0.11088
C_ C_ 0.745172 0.893639 0.387662 -0.11088
C_ C_ 0.529694 0.923705 0.374046 -0.11981
C_ C_ 0.770123 0.910192 0.364943 -0.11981
C_ C_ 0.692391 0.88554 0.415531 0.50456
C_ C_ 0.941954 0.887465 0.41613 0.50456
C_ C_ 0.511093 0.88194 0.418631 0.50456
C_ C_ 0.749878 0.871502 0.411551 0.50456
C_ C_ 0.693323 0.828972 0.504763 0.19611
C_ C_ 0.941015 0.830624 0.500548 0.19611
C_ C_ 0.698283 0.853157 0.481873 -0.11981
C_ C_ 0.951828 0.855042 0.47718 -0.11981
C_ C_ 0.709512 0.84361 0.453154 0.26597
C_ C_ 0.961421 0.842207 0.449365 0.26597
C_ C_ 0.706528 0.807531 0.447002 -0.11981
C_ C_ 0.967732 0.80673 0.446081 -0.11981
C_ C_ 0.700742 0.783242 0.470599 0.19611
C_ C_ 0.957418 0.784328 0.469158 0.19611
C_ C_ 0.579375 0.803716 0.0141633 0.62841
C_ C_ 0.829366 0.800105 0.0142087 0.62841
C_ C_ 0.574965 0.823124 0.0427739 -0.11088
C_ C_ 0.823785 0.830156 0.0347331 -0.11088
C_ C_ 0.538734 0.831669 0.0538561 -0.11981
C_ C_ 0.791972 0.849087 0.0326977 -0.11981
C_ C_ 0.536853 0.860837 0.0729673 -0.11981
C_ C_ 0.791206 0.879129 0.0518665 -0.11981
C_ C_ 0.569621 0.870908 0.0901225 -0.11088
C_ C_ 0.821839 0.888625 0.071044 -0.11088
C_ C_ 0.604853 0.861844 0.0811502 -0.11088
C_ C_ 0.852394 0.869066 0.0727233 -0.11088
C_ C_ 0.608411 0.841215 0.0547722 -0.11981
C_ C_ 0.853826 0.839908 0.0554068 -0.11981
C_ C_ 0.632079 0.883043 0.0966466 0.50456
C_ C_ 0.874887 0.880465 0.0967438 0.50456
C_ C_ 0.576217 0.901525 0.107314 0.50456
C_ C_ 0.823494 0.909957 0.0955213 0.50456
C_ C_ 0.635655 0.982421 0.165375 0.19611
C_ C_ 0.87649 0.979662 0.165212 0.19611
C_ C_ 0.622479 0.96327 0.140544 -0.11981
C_ C_ 0.863409 0.959148 0.139629 -0.11981
C_ C_ 0.628146 0.927292 0.138165 0.26597
C_ C_ 0.871248 0.924599 0.136048 0.26597
C_ C_ 0.650522 0.912021 0.159752 -0.11981
C_ C_ 0.896513 0.911562 0.156765 -0.11981
C_ C_ 0.663645 0.933259 0.184674 0.19611
C_ C_ 0.906754 0.931928 0.182804 0.19611
C_ C_ 0.719596 0.795246 0.068237 0.62841
C_ C_ 0.961712 0.787391 0.0834847 0.62841
C_ C_ 0.747101 0.808212 0.0932511 -0.11088
C_ C_ 0.987645 0.80603 0.106767 -0.11088
C_ C_ 0.524764 0.783985 0.11498 -0.11981
C_ C_ 0.784153 0.796925 0.0995279 -0.11981
C_ C_ 0.552526 0.80182 0.134707 -0.11981
C_ C_ 0.807843 0.811448 0.123531 -0.11981
C_ C_ 0.537692 0.824844 0.154917 -0.11088
C_ C_ 0.791342 0.834548 0.142901 -0.11088
C_ C_ 0.760157 0.850448 0.134454 -0.11088
C_ C_ 0.996661 0.843489 0.152027 -0.11088
C_ C_ 0.735614 0.835886 0.112757 -0.11981
C_ C_ 0.97407 0.833399 0.125344 -0.11981
C_ C_ 0.556252 0.84457 0.177488 0.50456
C_ C_ 0.804491 0.850316 0.169684 0.50456
C_ C_ 0.753136 0.875365 0.157549 0.50456
C_ C_ 0.995173 0.874061 0.167975 0.50456
C_ C_ 0.562002 0.918753 0.258105 0.19611
C_ C_ 0.807862 0.918927 0.252147 0.19611
C_ C_ 0.555443 0.89009 0.237741 -0.11981
C_ C_ 0.801359 0.892616 0.22982 -0.11981
C_ C_ 0.543933 0.896645 0.208411 0.26597
C_ C_ 0.79155 0.901022 0.201603 0.26597
C_ C_ 0.539886 0.931838 0.200317 -0.11981
C_ C_ 0.788519 0.937602 0.194866 -0.11981
C_ C_ 0.55172 0.958236 0.219595 0.19611
C_ C_ 0.793409 0.962129 0.217845 0.19611
N_ N_ 0.65365 0.722307 0.061427 -0.35402
N_ N_ 0.898556 0.720402 0.063801 -0.35402
N_ N_ 0.609988 0.660557 0.133172 -0.27957
N_ N_ 0.855321 0.659187 0.138709 -0.27957
N_ N_ 0.536953 0.6359 0.0684759 -0.27957
N_ N_ 0.781276 0.624723 0.063324 -0.27957
N_ N_ 0.548242 0.712924 4.0000000000040004e-05 -0.35402
N_ N_ 0.802126 0.707029 0.000166713 -0.35402
N_ N_ 0.599097 0.536348 0.309996 -0.35402
N_ N_ 0.850136 0.529709 0.317557 -0.35402
N_ N_ 0.647003 0.598513 0.382115 -0.27957
N_ N_ 0.896316 0.588139 0.392252 -0.27957
N_ N_ 0.720402 0.625278 0.317861 -0.27957
N_ N_ 0.970333 0.628417 0.311247 -0.27957
N_ N_ 0.694249 0.545518 0.251505 -0.35402
N_ N_ 0.940081 0.54293 0.253967 -0.35402
N_ N_ 0.595408 0.778991 0.434541 -0.35402
N_ N_ 0.845967 0.774499 0.431205 -0.35402
N_ N_ 0.643398 0.843819 0.364359 -0.27957
N_ N_ 0.89054 0.832361 0.354704 -0.27957
N_ N_ 0.71848 0.867692 0.429141 -0.27957
N_ N_ 0.966189 0.864284 0.42394 -0.27957
N_ N_ 0.693877 0.79437 0.498713 -0.35402
N_ N_ 0.945643 0.795829 0.496383 -0.35402
N_ N_ 0.656477 0.967601 0.185793 -0.35402
N_ N_ 0.898138 0.965553 0.185956 -0.35402
N_ N_ 0.614258 0.908356 0.112147 -0.27957
N_ N_ 0.855845 0.903814 0.11263 -0.27957
N_ N_ 0.532545 0.867747 0.187735 -0.27957
N_ N_ 0.781947 0.874626 0.178455 -0.27957
N_ N_ 0.563186 0.952052 0.247703 -0.35402
N_ N_ 0.804613 0.952646 0.246065 -0.35402
O_ O_ 0.613138 0.53507 0.2291 -0.59275
O_ O_ 0.86829 0.530347 0.228793 -0.59275
O_ O_ 0.555463 0.540982 0.249574 -0.41573
O_ O_ 0.810592 0.536058 0.252446 -0.41573
O_ O_ 0.545674 0.67717 0.134946 -0.59275
O_ O_ 0.788581 0.666996 0.136202 -0.59275
O_ O_ 0.665721 0.641289 0.155555 -0.59275
O_ O_ 0.915095 0.64736 0.163258 -0.59275
O_ O_ 0.68388 0.549585 0.173918 -0.59275
O_ O_ 0.922073 0.547609 0.174112 -0.59275
O_ O_ 0.728687 0.519259 0.191862 -0.41573
O_ O_ 0.967517 0.513561 0.189694 -0.41573
O_ O_ 0.715228 0.628054 0.0712122 -0.59275
O_ O_ 0.958787 0.624278 0.0724284 -0.59275
O_ O_ 0.591236 0.604643 0.0633469 -0.59275
O_ O_ 0.834769 0.593067 0.0593241 -0.59275
O_ O_ 0.63554 0.721977 0.481298 -0.59275
O_ O_ 0.890815 0.724994 0.478555 -0.59275
O_ O_ 0.692296 0.713285 0.00160056 -0.41573
O_ O_ 0.939955 0.711355 0.00514889 -0.41573
O_ O_ 0.701688 0.571032 0.39312 -0.59275
O_ O_ 0.96329 0.582251 0.386566 -0.59275
O_ O_ 0.607433 0.645662 0.38099 -0.59275
O_ O_ 0.840209 0.605447 0.412332 -0.59275
O_ O_ 0.557479 0.700017 0.431463 -0.59275
O_ O_ 0.816724 0.699246 0.428229 -0.59275
O_ O_ 0.515318 0.738862 0.436864 -0.41573
O_ O_ 0.771877 0.732943 0.444085 -0.41573
O_ O_ 0.523924 0.607678 0.33309 -0.59275
O_ O_ 0.779786 0.611887 0.333638 -0.59275
O_ O_ 0.668947 0.659525 0.310369 -0.59275
O_ O_ 0.906777 0.640577 0.319229 -0.59275
O_ O_ 0.642667 0.965569 0.263065 -0.59275
O_ O_ 0.886099 0.968937 0.265255 -0.59275
O_ O_ 0.700967 0.957137 0.244301 -0.41573
O_ O_ 0.944502 0.962328 0.246406 -0.41573
O_ O_ 0.704586 0.824185 0.359658 -0.59275
O_ O_ 0.955382 0.819981 0.358899 -0.59275
O_ O_ 0.586998 0.871838 0.351109 -0.59275
O_ O_ 0.83331 0.856928 0.339122 -0.59275
O_ O_ 0.572881 0.958859 0.325422 -0.59275
O_ O_ 0.819192 0.95025 0.324159 -0.59275
O_ O_ 0.523114 0.982309 0.307679 -0.41573
O_ O_ 0.770721 0.972901 0.302409 -0.41573
O_ O_ 0.541454 0.882119 0.436635 -0.59275
O_ O_ 0.784191 0.864468 0.422842 -0.59275
O_ O_ 0.663022 0.894455 0.42923 -0.59275
O_ O_ 0.910306 0.892468 0.430611 -0.59275
O_ O_ 0.607689 0.782692 0.0134267 -0.59275
O_ O_ 0.858159 0.779825 0.0185037 -0.59275
O_ O_ 0.557719 0.787348 0.497461 -0.41573
O_ O_ 0.805087 0.788671 0.496013 -0.41573
O_ O_ 0.549734 0.916533 0.121432 -0.59275
O_ O_ 0.79175 0.923358 0.105817 -0.59275
O_ O_ 0.66716 0.890163 0.0856541 -0.59275
O_ O_ 0.912244 0.882451 0.09553 -0.59275
O_ O_ 0.685101 0.802055 0.0703489 -0.59275
O_ O_ 0.927861 0.797952 0.0774379 -0.59275
O_ O_ 0.727848 0.769211 0.0517313 -0.41573
O_ O_ 0.972751 0.76433 0.0635051 -0.41573
O_ O_ 0.719705 0.88251 0.165636 -0.59275
O_ O_ 0.963989 0.877645 0.183776 -0.59275
O_ O_ 0.593958 0.848591 0.179985 -0.59275
O_ O_ 0.842113 0.852913 0.176126 -0.59275
Cd Cd 0.679548 0.501716 0.720368 0.98062
Cd Cd 0.925171 0.5071 0.717962 0.98062
Cd Cd 0.556405 0.753606 0.96458 0.98062
Cd Cd 0.813379 0.747861 0.969074 0.98062
Cd Cd 0.573616 0.999161 0.782415 0.98062
Cd Cd 0.819035 1.00284329 0.780279 0.98062
Cd Cd 0.67786 0.755789 0.531297 0.98062
Cd Cd 0.929083 0.757558 0.531141 0.98062
H_ H_ 0.52053 0.591125 0.726251 0.11374
H_ H_ 0.762944 0.593767 0.728566 0.11374
H_ H_ 0.754782 0.639195 0.689687 0.11374
H_ H_ 1.0143794 0.640879 0.694085 0.11374
H_ H_ 0.63444 0.582443 0.69073 0.11374
H_ H_ 0.880289 0.584987 0.696745 0.11374
H_ H_ 0.621366 0.759458 0.577863 0.11374
H_ H_ 0.865212 0.762896 0.584527 0.11374
H_ H_ 0.593006 0.724376 0.621766 0.11374
H_ H_ 0.831961 0.726033 0.622244 0.11374
H_ H_ 0.664185 0.64329 0.597958 0.11374
H_ H_ 0.909948 0.648632 0.600421 0.11374
H_ H_ 0.693897 0.679083 0.55776 0.11374
H_ H_ 0.942609 0.691239 0.562851 0.11374
H_ H_ 0.549556 0.535811 0.662156 0.11374
H_ H_ 0.791189 0.52884 0.660457 0.11374
H_ H_ 0.588504 0.571925 0.624507 0.11374
H_ H_ 0.838845 0.567678 0.630267 0.11374
H_ H_ 0.697726 0.585902 0.625126 0.11374
H_ H_ 0.951566 0.590341 0.630142 0.11374
H_ H_ 0.562571 0.670387 0.972219 0.11374
H_ H_ 0.802941 0.668043 0.9687 0.11374
H_ H_ 0.549777 0.62093 0.51153 0.11374
H_ H_ 0.805754 0.616203 0.513258 0.11374
H_ H_ 0.520713 0.699791 0.57175 0.11374
H_ H_ 0.7849 0.702155 0.575662 0.11374
H_ H_ 0.540347 0.744131 0.5334 0.11374
H_ H_ 0.79557 0.740841 0.533325 0.11374
H_ H_ 0.723576 0.656448 0.98272 0.11374
H_ H_ 0.982269 0.674207 0.965462 0.11374
H_ H_ 0.479656 0.605911 0.947756 0.11374
H_ H_ 0.734224 0.608583 0.943053 0.11374
H_ H_ 0.613617 0.671522 0.939047 0.11374
H_ H_ 0.859736 0.666637 0.944357 0.11374
H_ H_ 0.642501 0.996044 0.828178 0.11374
H_ H_ 0.88509 0.991306 0.830083 0.11374
H_ H_ 0.658525 0.528471 0.871071 0.11374
H_ H_ 0.893624 0.518857 0.881479 0.11374
H_ H_ 0.578266 0.603748 0.851359 0.11374
H_ H_ 0.853554 0.610476 0.843027 0.11374
H_ H_ 0.559436 0.571916 0.805052 0.11374
H_ H_ 0.824554 0.574193 0.801565 0.11374
H_ H_ 0.707426 0.72799 0.907164 0.11374
H_ H_ 0.958201 0.729617 0.906891 0.11374
H_ H_ 0.659761 0.693558 0.872724 0.11374
H_ H_ 0.912366 0.699661 0.870252 0.11374
H_ H_ 0.542102 0.669551 0.869111 0.11374
H_ H_ 0.79381 0.663845 0.875835 0.11374
H_ H_ 0.685011 0.584299 0.723054 0.11374
H_ H_ 0.94223 0.593966 0.722301 0.11374
H_ H_ 0.692443 0.631674 0.761275 0.11374
H_ H_ 0.947791 0.638096 0.764195 0.11374
H_ H_ 0.723544 0.554146 0.822636 0.11374
H_ H_ 0.964895 0.558778 0.824654 0.11374
H_ H_ 0.698544 0.508944 0.790398 0.11374
H_ H_ 0.957306 0.512974 0.783174 0.11374
H_ H_ 0.729635 0.90847 0.770587 0.11374
H_ H_ 0.988683 0.915614 0.782897 0.11374
H_ H_ 0.493055 0.874157 0.8196 0.11374
H_ H_ 0.734293 0.86618 0.811383 0.11374
H_ H_ 0.612609 0.923001 0.801708 0.11374
H_ H_ 0.868943 0.914949 0.806211 0.11374
H_ H_ 0.631478 0.746233 0.922238 0.11374
H_ H_ 0.877384 0.738204 0.919203 0.11374
H_ H_ 0.651044 0.775332 0.870596 0.11374
H_ H_ 0.898213 0.767545 0.874142 0.11374
H_ H_ 0.581915 0.857677 0.897185 0.11374
H_ H_ 0.840316 0.856046 0.901989 0.11374
H_ H_ 0.550163 0.821816 0.936814 0.11374
H_ H_ 0.815856 0.825487 0.946489 0.11374
H_ H_ 0.713928 0.97642 0.840571 0.11374
H_ H_ 0.958829 0.9769 0.841324 0.11374
H_ H_ 0.664489 0.943138 0.873815 0.11374
H_ H_ 0.913206 0.946786 0.880352 0.11374
H_ H_ 0.558025 0.915749 0.881374 0.11374
H_ H_ 0.802286 0.908292 0.86478 0.11374
H_ H_ 0.688656 0.838688 0.526904 0.11374
H_ H_ 0.928698 0.839981 0.521652 0.11374
H_ H_ 0.6905 0.876654 0.980231 0.11374
H_ H_ 0.949588 0.884599 0.995314 0.11374
H_ H_ 0.720826 0.799229 0.919799 0.11374
H_ H_ 0.955881 0.812723 0.924235 0.11374
H_ H_ 0.708476 0.757292 0.959237 0.11374
H_ H_ 0.945998 0.764584 0.959445 0.11374
H_ H_ 0.518544 0.830506 0.527283 0.11374
H_ H_ 0.764354 0.835407 0.527233 0.11374
H_ H_ 0.759354 0.876327 0.569592 0.11374
H_ H_ 0.00713587 0.867424 0.568937 0.11374
H_ H_ 0.641221 0.83395 0.553973 0.11374
H_ H_ 0.880595 0.82761 0.557074 0.11374
H_ H_ 0.612358 0.504935 0.66959 0.11374
H_ H_ 0.876517 0.510326 0.65723 0.11374
H_ H_ 0.617752 0.98359 0.616237 0.11374
H_ H_ 0.846942 0.966958 0.62929 0.11374
H_ H_ 0.653085 0.890671 0.658411 0.11374
H_ H_ 0.910666 0.883489 0.658755 0.11374
H_ H_ 0.676195 0.923996 0.701828 0.11374
H_ H_ 0.929376 0.918616 0.703942 0.11374
H_ H_ 0.544739 0.779782 0.590463 0.11374
H_ H_ 0.791167 0.777533 0.593478 0.11374
H_ H_ 0.588196 0.805613 0.6269 0.11374
H_ H_ 0.834363 0.806362 0.631644 0.11374
H_ H_ 0.699711 0.841484 0.617188 0.11374
H_ H_ 0.948908 0.835807 0.626934 0.11374
H_ H_ 0.557345 0.918871 0.779202 0.11374
H_ H_ 0.821019 0.923616 0.774695 0.11374
H_ H_ 0.54179 0.869415 0.741783 0.11374
H_ H_ 0.812227 0.875746 0.736712 0.11374
H_ H_ 0.544473 0.942974 0.671905 0.11374
H_ H_ 0.787007 0.949514 0.670046 0.11374
H_ H_ 0.565077 0.990306 0.709334 0.11374
H_ H_ 0.806765 0.997287 0.706844 0.11374
C_ C_ 0.583003 0.551866 0.733434 0.62841
C_ C_ 0.82704 0.556453 0.736959 0.62841
C_ C_ 0.580093 0.582317 0.712602 -0.11088
C_ C_ 0.822778 0.585968 0.716375 -0.11088
C_ C_ 0.544829 0.599046 0.711533 -0.11981
C_ C_ 0.787888 0.602628 0.714079 -0.11981
C_ C_ 0.537974 0.624251 0.689666 -0.11981
C_ C_ 0.782859 0.629782 0.693951 -0.11981
C_ C_ 0.569632 0.637293 0.672193 -0.11088
C_ C_ 0.815573 0.642041 0.675911 -0.11088
C_ C_ 0.605228 0.624538 0.67518 -0.11088
C_ C_ 0.850543 0.627749 0.679938 -0.11088
C_ C_ 0.609255 0.594548 0.692126 -0.11981
C_ C_ 0.854457 0.599182 0.698774 -0.11981
C_ C_ 0.628906 0.638605 0.652449 0.50456
C_ C_ 0.875617 0.642493 0.657673 0.50456
C_ C_ 0.573813 0.659474 0.648462 0.50456
C_ C_ 0.819443 0.664204 0.652814 0.50456
C_ C_ 0.628464 0.734128 0.582779 0.19611
C_ C_ 0.871054 0.73652 0.585444 0.19611
C_ C_ 0.611533 0.714101 0.606393 -0.11981
C_ C_ 0.855236 0.716064 0.607893 -0.11981
C_ C_ 0.623355 0.680336 0.612194 0.26597
C_ C_ 0.870754 0.684271 0.615707 0.26597
C_ C_ 0.650867 0.66792 0.592177 -0.11981
C_ C_ 0.901478 0.674275 0.598229 -0.11981
C_ C_ 0.668437 0.689589 0.570841 0.19611
C_ C_ 0.91552 0.694763 0.573616 0.19611
C_ C_ 0.714258 0.53916 0.670307 0.62841
C_ C_ 0.962535 0.540589 0.671093 0.62841
C_ C_ 0.741923 0.556473 0.647151 -0.11088
C_ C_ 0.990928 0.5546 0.647541 -0.11088
C_ C_ 0.535511 0.552733 0.647159 -0.11981
C_ C_ 0.780467 0.54809 0.645026 -0.11981
C_ C_ 0.558199 0.566987 0.622628 -0.11981
C_ C_ 0.80657 0.567391 0.625798 -0.11981
C_ C_ 0.543133 0.588177 0.602378 -0.11088
C_ C_ 0.792036 0.591755 0.606947 -0.11088
C_ C_ 0.753481 0.595246 0.604628 -0.11088
C_ C_ 0.0047954 0.595712 0.607058 -0.11088
C_ C_ 0.727588 0.578822 0.624967 -0.11981
C_ C_ 0.978718 0.580426 0.627867 -0.11981
C_ C_ 0.559597 0.614335 0.582755 0.50456
C_ C_ 0.810266 0.613483 0.585563 0.50456
C_ C_ 0.749583 0.620803 0.582949 0.50456
C_ C_ -0.0004830000000000112 0.615896 0.582595 0.50456
C_ C_ 0.557806 0.672558 0.49533 0.19611
C_ C_ 0.805398 0.6696 0.49496 0.19611
C_ C_ 0.548435 0.647542 0.517294 -0.11981
C_ C_ 0.799909 0.643721 0.517971 -0.11981
C_ C_ 0.537244 0.656961 0.545778 0.26597
C_ C_ 0.7912 0.654363 0.54675 0.26597
C_ C_ 0.531558 0.69181 0.550137 -0.11981
C_ C_ 0.789423 0.691597 0.552343 -0.11981
C_ C_ 0.539279 0.716759 0.527454 0.19611
C_ C_ 0.796227 0.713511 0.528429 0.19611
C_ C_ 0.663979 0.700991 0.983534 0.62841
C_ C_ 0.915065 0.699865 0.98322 0.62841
C_ C_ 0.66842 0.670268 0.962625 -0.11088
C_ C_ 0.919295 0.668998 0.965143 -0.11088
C_ C_ 0.702498 0.652028 0.964335 -0.11981
C_ C_ 0.956986 0.65876 0.958134 -0.11981
C_ C_ 0.708048 0.624983 0.942721 -0.11981
C_ C_ 0.961368 0.629379 0.938901 -0.11981
C_ C_ 0.680234 0.618445 0.919516 -0.11088
C_ C_ 0.929362 0.611971 0.925705 -0.11088
C_ C_ 0.646759 0.634365 0.920423 -0.11088
C_ C_ 0.89392 0.623881 0.928656 -0.11088
C_ C_ 0.638292 0.656531 0.94346 -0.11981
C_ C_ 0.887406 0.653504 0.947219 -0.11981
C_ C_ 0.620075 0.618893 0.89994 0.50456
C_ C_ 0.871297 0.610969 0.904167 0.50456
C_ C_ 0.672715 0.592042 0.898983 0.50456
C_ C_ 0.927168 0.588417 0.902641 0.50456
C_ C_ 0.621736 0.518368 0.833075 0.19611
C_ C_ 0.870107 0.513279 0.836152 0.19611
C_ C_ 0.635106 0.537244 0.858637 -0.11981
C_ C_ 0.885564 0.532973 0.861098 -0.11981
C_ C_ 0.621354 0.570027 0.863451 0.26597
C_ C_ 0.880201 0.56882 0.862577 0.26597
C_ C_ 0.590541 0.580076 0.845705 -0.11981
C_ C_ 0.856445 0.583276 0.84182 -0.11981
C_ C_ 0.577811 0.560848 0.820427 0.19611
C_ C_ 0.841122 0.562922 0.817752 0.19611
C_ C_ 0.522894 0.716174 0.915841 0.62841
C_ C_ 0.779222 0.710434 0.921003 0.62841
C_ C_ 0.49683 0.697222 0.892949 -0.11088
C_ C_ 0.754811 0.69751 0.895132 -0.11088
C_ C_ 0.717005 0.708061 0.89223 -0.11981
C_ C_ 0.967589 0.709227 0.892466 -0.11981
C_ C_ 0.691627 0.69185 0.869685 -0.11981
C_ C_ 0.941988 0.693854 0.871663 -0.11981
C_ C_ 0.705925 0.669435 0.847933 -0.11088
C_ C_ 0.954875 0.670361 0.851731 -0.11088
C_ C_ 0.486803 0.659021 0.849225 -0.11088
C_ C_ 0.743392 0.660276 0.849953 -0.11088
C_ C_ 0.512406 0.675409 0.869631 -0.11981
C_ C_ 0.76645 0.67369 0.873494 -0.11981
C_ C_ 0.686788 0.642516 0.832325 0.50456
C_ C_ 0.936009 0.647555 0.831404 0.50456
C_ C_ 0.493793 0.630922 0.830218 0.50456
C_ C_ 0.745806 0.630995 0.832946 0.50456
C_ C_ 0.688989 0.577062 0.746145 0.19611
C_ C_ 0.944554 0.584023 0.744845 0.19611
C_ C_ 0.692691 0.603606 0.768261 -0.11981
C_ C_ 0.947845 0.610289 0.768492 -0.11981
C_ C_ 0.702749 0.596156 0.797134 0.26597
C_ C_ 0.953728 0.599513 0.797105 0.26597
C_ C_ 0.70409 0.560823 0.805055 -0.11981
C_ C_ 0.953661 0.564146 0.803168 -0.11981
C_ C_ 0.697147 0.534691 0.782239 0.19611
C_ C_ 0.948083 0.539595 0.779967 0.19611
C_ C_ 0.668152 0.952296 0.763014 0.62841
C_ C_ 0.922925 0.947637 0.764988 0.62841
C_ C_ 0.672189 0.923858 0.784817 -0.11088
C_ C_ 0.927302 0.91773 0.787916 -0.11088
C_ C_ 0.706138 0.904119 0.785891 -0.11981
C_ C_ 0.964249 0.906364 0.795706 -0.11981
C_ C_ 0.70778 0.877768 0.807401 -0.11981
C_ C_ 0.967474 0.880181 0.816492 -0.11981
C_ C_ 0.679308 0.873459 0.829226 -0.11088
C_ C_ 0.935052 0.863035 0.82974 -0.11088
C_ C_ 0.645865 0.888416 0.825684 -0.11088
C_ C_ 0.899663 0.874307 0.821727 -0.11088
C_ C_ 0.640205 0.914295 0.804347 -0.11981
C_ C_ 0.894581 0.902938 0.802994 -0.11981
C_ C_ 0.618472 0.870181 0.843965 0.50456
C_ C_ 0.873715 0.856292 0.840508 0.50456
C_ C_ 0.670477 0.842899 0.846613 0.50456
C_ C_ 0.928383 0.838003 0.852795 0.50456
C_ C_ 0.618918 0.770417 0.915081 0.19611
C_ C_ 0.870042 0.764926 0.917197 0.19611
C_ C_ 0.630653 0.786444 0.887237 -0.11981
C_ C_ 0.884281 0.782968 0.892035 -0.11981
C_ C_ 0.617245 0.819095 0.879468 0.26597
C_ C_ 0.873662 0.815866 0.88437 0.26597
C_ C_ 0.588479 0.830826 0.897827 -0.11981
C_ C_ 0.85104 0.831536 0.906648 -0.11981
C_ C_ 0.574266 0.812043 0.922582 0.19611
C_ C_ 0.838879 0.814135 0.933232 0.19611
C_ C_ 0.540621 0.959149 0.833728 0.62841
C_ C_ 0.785317 0.962268 0.826751 0.62841
C_ C_ 0.512437 0.944725 0.859158 -0.11088
C_ C_ 0.758394 0.942701 0.847872 -0.11088
C_ C_ 0.720447 0.954038 0.85142 -0.11981
C_ C_ 0.968893 0.956107 0.856394 -0.11981
C_ C_ 0.695133 0.936644 0.872565 -0.11981
C_ C_ 0.942828 0.938768 0.878884 -0.11981
C_ C_ 0.707722 0.910644 0.89133 -0.11088
C_ C_ 0.959038 0.919409 0.901528 -0.11088
C_ C_ 0.502105 0.907447 0.903297 -0.11088
C_ C_ 0.746918 0.903121 0.889407 -0.11088
C_ C_ 0.528224 0.92613 0.884015 -0.11981
C_ C_ 0.771606 0.915969 0.866678 -0.11981
C_ C_ 0.688362 0.888868 0.911195 0.50456
C_ C_ 0.940525 0.897797 0.923072 0.50456
C_ C_ 0.504664 0.885301 0.928496 0.50456
C_ C_ 0.746979 0.875413 0.908879 0.50456
C_ C_ 0.689029 0.826623 -0.002919000000000005 0.19611
C_ C_ 0.948157 0.830688 0.00837394 0.19611
C_ C_ 0.692861 0.849933 0.973729 -0.11981
C_ C_ 0.95407 0.858561 0.988071 -0.11981
C_ C_ 0.707425 0.841568 0.946247 0.26597
C_ C_ 0.95738 0.852438 0.957588 0.26597
C_ C_ 0.713792 0.807963 0.941943 -0.11981
C_ C_ 0.954942 0.818186 0.948178 -0.11981
C_ C_ 0.70775 0.783981 0.965205 0.19611
C_ C_ 0.944625 0.7916 0.967603 0.19611
C_ C_ 0.588064 0.802139 0.512549 0.62841
C_ C_ 0.830509 0.799142 0.5163 0.62841
C_ C_ 0.580494 0.827432 0.537555 -0.11088
C_ C_ 0.826818 0.830667 0.535538 -0.11088
C_ C_ 0.543795 0.83958 0.540988 -0.11981
C_ C_ 0.790864 0.844995 0.540982 -0.11981
C_ C_ 0.539415 0.866205 0.561316 -0.11981
C_ C_ 0.786879 0.870598 0.562419 -0.11981
C_ C_ 0.571933 0.883062 0.576572 -0.11088
C_ C_ 0.822375 0.886104 0.57613 -0.11088
C_ C_ 0.607754 0.871045 0.572213 -0.11088
C_ C_ 0.857274 0.872019 0.573172 -0.11088
C_ C_ 0.61302 0.842705 0.555407 -0.11981
C_ C_ 0.858553 0.843252 0.553869 -0.11981
C_ C_ 0.631276 0.88839 0.593452 0.50456
C_ C_ 0.880772 0.883224 0.597022 0.50456
C_ C_ 0.57572 0.908208 0.599827 0.50456
C_ C_ 0.826127 0.905678 0.602262 0.50456
C_ C_ 0.634336 0.987272 0.663885 0.19611
C_ C_ 0.879848 0.974722 0.670897 0.19611
C_ C_ 0.624657 0.968615 0.636493 -0.11981
C_ C_ 0.86845 0.95711 0.644136 -0.11981
C_ C_ 0.628736 0.932032 0.634962 0.26597
C_ C_ 0.876431 0.922493 0.640523 0.26597
C_ C_ 0.645347 0.917472 0.660897 -0.11981
C_ C_ 0.902308 0.909428 0.660121 -0.11981
C_ C_ 0.659701 0.937354 0.683687 0.19611
C_ C_ 0.91671 0.929171 0.685518 0.19611
C_ C_ 0.714594 0.787556 0.580266 0.62841
C_ C_ 0.966385 0.790379 0.579527 0.62841
C_ C_ 0.743122 0.807889 0.602006 -0.11088
C_ C_ 0.990838 0.802714 0.604979 -0.11088
C_ C_ 0.533665 0.795694 0.605325 -0.11981
C_ C_ 0.781554 0.798994 0.606307 -0.11981
C_ C_ 0.558605 0.808491 0.629529 -0.11981
C_ C_ 0.805385 0.814449 0.630013 -0.11981
C_ C_ 0.544592 0.833382 0.648887 -0.11088
C_ C_ 0.787819 0.83617 0.649658 -0.11088
C_ C_ 0.751093 0.844443 0.646756 -0.11088
C_ C_ 0.0026483 0.83832 0.651198 -0.11088
C_ C_ 0.728771 0.833367 0.620772 -0.11981
C_ C_ 0.979411 0.829731 0.625926 -0.11981
C_ C_ 0.562526 0.853512 0.671986 0.50456
C_ C_ 0.807538 0.85788 0.669028 0.50456
C_ C_ 0.751753 0.873446 0.664964 0.50456
C_ C_ 0.00133937 0.867845 0.669301 0.50456
C_ C_ 0.556325 0.923263 0.755972 0.19611
C_ C_ 0.812945 0.929952 0.751938 0.19611
C_ C_ 0.550449 0.89581 0.733997 -0.11981
C_ C_ 0.804191 0.90159 0.731483 -0.11981
C_ C_ 0.548968 0.903283 0.703704 0.26597
C_ C_ 0.791934 0.909109 0.703653 0.26597
C_ C_ 0.548571 0.937919 0.695358 -0.11981
C_ C_ 0.790303 0.944269 0.694385 -0.11981
C_ C_ 0.556763 0.965076 0.717862 0.19611
C_ C_ 0.799604 0.972022 0.715124 0.19611
N_ N_ 0.654476 0.720591 0.563848 -0.35402
N_ N_ 0.89935 0.725028 0.567548 -0.35402
N_ N_ 0.610699 0.663593 0.638325 -0.27957
N_ N_ 0.855308 0.664026 0.640476 -0.27957
N_ N_ 0.531642 0.6295 0.568551 -0.27957
N_ N_ 0.783419 0.629206 0.56986 -0.27957
N_ N_ 0.552528 0.706778 0.500627 -0.35402
N_ N_ 0.806035 0.704953 0.501064 -0.35402
N_ N_ 0.592423 0.527941 0.814323 -0.35402
N_ N_ 0.846033 0.527409 0.816164 -0.35402
N_ N_ 0.637336 0.593199 0.887256 -0.27957
N_ N_ 0.89074 0.587577 0.890178 -0.27957
N_ N_ 0.711773 0.622044 0.819218 -0.27957
N_ N_ 0.960039 0.623656 0.821253 -0.27957
N_ N_ 0.689448 0.542604 0.753123 -0.35402
N_ N_ 0.944497 0.54931 0.75117 -0.35402
N_ N_ 0.589699 0.781646 0.931587 -0.35402
N_ N_ 0.846086 0.780088 0.937199 -0.35402
N_ N_ 0.632446 0.841027 0.855434 -0.27957
N_ N_ 0.890585 0.833849 0.858167 -0.27957
N_ N_ 0.712965 0.867733 0.923052 -0.27957
N_ N_ 0.965165 0.879176 0.936472 -0.27957
N_ N_ 0.693721 0.792883 0.991695 -0.35402
N_ N_ 0.944441 0.797379 -0.002191000000000054 -0.35402
N_ N_ 0.657081 0.972953 0.68504 -0.35402
N_ N_ 0.908036 0.962655 0.687666 -0.35402
N_ N_ 0.612307 0.910212 0.610592 -0.27957
N_ N_ 0.860431 0.903273 0.615115 -0.27957
N_ N_ 0.538335 0.875891 0.682799 -0.27957
N_ N_ 0.783589 0.879218 0.681949 -0.27957
N_ N_ 0.559825 0.957979 0.74763 -0.35402
N_ N_ 0.808594 0.96403 0.744262 -0.35402
O_ O_ 0.613866 0.533482 0.731634 -0.59275
O_ O_ 0.857524 0.540039 0.736964 -0.59275
O_ O_ 0.554959 0.537603 0.750269 -0.41573
O_ O_ 0.799477 0.543579 0.754677 -0.41573
O_ O_ 0.544568 0.667235 0.631221 -0.59275
O_ O_ 0.789928 0.673079 0.636386 -0.59275
O_ O_ 0.665565 0.642135 0.65655 -0.59275
O_ O_ 0.913145 0.647089 0.661959 -0.59275
O_ O_ 0.677186 0.542719 0.668226 -0.59275
O_ O_ 0.928996 0.553179 0.675222 -0.59275
O_ O_ 0.72464 0.523608 0.694267 -0.41573
O_ O_ 0.970145 0.516171 0.689496 -0.41573
O_ O_ 0.71668 0.622325 0.567881 -0.59275
O_ O_ 0.971483 0.634967 0.578038 -0.59275
O_ O_ 0.594495 0.613939 0.571469 -0.59275
O_ O_ 0.845035 0.610003 0.574754 -0.59275
O_ O_ 0.633222 0.717714 0.983574 -0.59275
O_ O_ 0.886012 0.717999 0.978223 -0.59275
O_ O_ 0.688999 0.709198 0.507945 -0.41573
O_ O_ 0.942117 0.713337 0.506643 -0.41573
O_ O_ 0.701703 0.580974 0.884219 -0.59275
O_ O_ 0.957931 0.578949 0.887589 -0.59275
O_ O_ 0.582923 0.615337 0.904953 -0.59275
O_ O_ 0.834837 0.612862 0.900778 -0.59275
O_ O_ 0.56062 0.710885 0.916402 -0.59275
O_ O_ 0.816063 0.704184 0.921669 -0.59275
O_ O_ 0.512157 0.736942 0.936283 -0.41573
O_ O_ 0.768677 0.733258 0.940618 -0.41573
O_ O_ 0.52814 0.628553 0.817792 -0.59275
O_ O_ 0.779114 0.620899 0.821819 -0.59275
O_ O_ 0.652534 0.647017 0.820382 -0.59275
O_ O_ 0.90316 0.653947 0.817931 -0.59275
O_ O_ 0.638616 0.971585 0.764145 -0.59275
O_ O_ 0.890782 0.962729 0.763783 -0.59275
O_ O_ 0.697243 0.962888 0.745154 -0.41573
O_ O_ 0.951496 0.960241 0.747059 -0.41573
O_ O_ 0.696438 0.831493 0.86561 -0.59275
O_ O_ 0.955669 0.824353 0.869377 -0.59275
O_ O_ 0.580817 0.870211 0.837372 -0.59275
O_ O_ 0.837447 0.849582 0.833076 -0.59275
O_ O_ 0.577373 0.954169 0.836055 -0.59275
O_ O_ 0.822239 0.958988 0.826556 -0.59275
O_ O_ 0.527403 0.974748 0.810206 -0.41573
O_ O_ 0.772474 0.98057 0.803916 -0.41573
O_ O_ 0.536202 0.88439 0.94436 -0.59275
O_ O_ 0.779097 0.866387 0.920164 -0.59275
O_ O_ 0.65555 0.895857 0.925365 -0.59275
O_ O_ 0.903147 0.89054 0.924982 -0.59275
O_ O_ 0.619834 0.783787 0.515436 -0.59275
O_ O_ 0.860925 0.782091 0.518427 -0.59275
O_ O_ 0.549766 0.794435 0.995807 -0.41573
O_ O_ 0.802782 0.788954 0.99355 -0.41573
O_ O_ 0.547632 0.918181 0.615357 -0.59275
O_ O_ 0.798098 0.916241 0.617777 -0.59275
O_ O_ 0.667964 0.89315 0.587885 -0.59275
O_ O_ 0.918348 0.887239 0.594992 -0.59275
O_ O_ 0.679914 0.797107 0.578051 -0.59275
O_ O_ 0.930407 0.797529 0.578922 -0.59275
O_ O_ 0.726158 0.770481 0.557142 -0.41573
O_ O_ 0.977625 0.769991 0.560011 -0.41573
O_ O_ 0.721937 0.888553 0.673269 -0.59275
O_ O_ 0.971742 0.874866 0.685106 -0.59275
O_ O_ 0.592112 0.844721 0.686762 -0.59275
O_ O_ 0.83899 0.850004 0.682951 -0.59275
_cell_length_a 34.63
_cell_length_b 38.60000006458207
_cell_length_c 44.73600002747608
_cell_angle_alpha 90.00000024786584
_cell_angle_beta 90.00200053664975
_cell_angle_gamma 94.96899993046472
_symmetry_space_group_name_H-M         'P 1'
_symmetry_Int_Tables_number            1
loop_
_symmetry_equiv_pos_as_xyz
   'x, y, z'
                         
loop_
_atom_site_label
_atom_site_type_symbol
_atom_site_fract_x 
_atom_site_fract_y
_atom_site_fract_z
_atom_site_charge
Cd Cd 0.193003 -0.0003630000000000022 0.219931 0.98062
Cd Cd 0.435563 -6.60000000000105e-05 0.217862 0.98062
Cd Cd 0.0683413 0.246058 0.469559 0.98062
Cd Cd 0.313211 0.248695 0.466719 0.98062
Cd Cd 0.0723903 0.498314 0.278905 0.98062
Cd Cd 0.318214 0.498482 0.284497 0.98062
Cd Cd 0.188624 0.252234 0.0340525 0.98062
Cd Cd 0.435791 0.249522 0.0288124 0.98062
H_ H_ 0.0144364 0.079578 0.218465 0.11374
H_ H_ 0.270855 0.080968 0.223671 0.11374
H_ H_ 0.263412 0.129808 0.188419 0.11374
H_ H_ 0.521288 0.136012 0.196376 0.11374
H_ H_ 0.135363 0.0837434 0.19375 0.11374
H_ H_ 0.390082 0.0779968 0.19225 0.11374
H_ H_ 0.124366 0.264483 0.0855143 0.11374
H_ H_ 0.376594 0.261281 0.0826294 0.11374
H_ H_ 0.0896214 0.231092 0.124818 0.11374
H_ H_ 0.351122 0.227932 0.128758 0.11374
H_ H_ 0.152633 0.144598 0.10041 0.11374
H_ H_ 0.394116 0.136401 0.0907025 0.11374
H_ H_ 0.173751 0.174097 0.0536158 0.11374
H_ H_ 0.425201 0.172212 0.0500058 0.11374
H_ H_ 0.0399295 0.0197601 0.155028 0.11374
H_ H_ 0.296904 0.0265824 0.155548 0.11374
H_ H_ 0.0841501 0.0451247 0.114864 0.11374
H_ H_ 0.338167 0.0561084 0.117611 0.11374
H_ H_ 0.206668 0.0927713 0.132866 0.11374
H_ H_ 0.45553 0.0890683 0.136245 0.11374
H_ H_ 0.0582729 0.160915 0.467363 0.11374
H_ H_ 0.325965 0.161358 0.475068 0.11374
H_ H_ 0.0761102 0.122906 0.0191513 0.11374
H_ H_ 0.310089 0.122628 0.0131601 0.11374
H_ H_ 0.0115739 0.19068 0.0711286 0.11374
H_ H_ 0.288109 0.202733 0.0776535 0.11374
H_ H_ 0.0230458 0.236864 0.0314028 0.11374
H_ H_ 0.293069 0.24488 0.039227 0.11374
H_ H_ 0.228935 0.169018 0.480225 0.11374
H_ H_ 0.482521 0.157649 0.475586 0.11374
H_ H_ 0.994697 0.120423 0.428875 0.11374
H_ H_ 0.242976 0.124841 0.44094 0.11374
H_ H_ 0.113647 0.173004 0.442538 0.11374
H_ H_ 0.368231 0.168294 0.43824 0.11374
H_ H_ 0.141487 0.494718 0.328435 0.11374
H_ H_ 0.371776 0.485315 0.338242 0.11374
H_ H_ 0.155753 0.0244421 0.377641 0.11374
H_ H_ 0.409273 0.0178054 0.3692 0.11374
H_ H_ 0.100196 0.110725 0.34593 0.11374
H_ H_ 0.348887 0.106328 0.341934 0.11374
H_ H_ 0.0722316 0.0720981 0.306489 0.11374
H_ H_ 0.321118 0.0723574 0.30075 0.11374
H_ H_ 0.204884 0.225967 0.399942 0.11374
H_ H_ 0.454115 0.226528 0.404913 0.11374
H_ H_ 0.16514 0.197464 0.359996 0.11374
H_ H_ 0.414296 0.200934 0.360985 0.11374
H_ H_ 0.051922 0.164838 0.371313 0.11374
H_ H_ 0.298595 0.163343 0.377187 0.11374
H_ H_ 0.186296 0.0780125 0.221789 0.11374
H_ H_ 0.439585 0.0838513 0.219871 0.11374
H_ H_ 0.19323 0.123467 0.259047 0.11374
H_ H_ 0.448024 0.131277 0.259745 0.11374
H_ H_ 0.226652 0.0496277 0.324714 0.11374
H_ H_ 0.469009 0.0527961 0.324982 0.11374
H_ H_ 0.229386 0.00797644 0.285166 0.11374
H_ H_ 0.456721 0.0076537 0.286158 0.11374
H_ H_ 0.228584 0.40872 0.266841 0.11374
H_ H_ 0.48028 0.406762 0.268453 0.11374
H_ H_ 0.995318 0.367378 0.308765 0.11374
H_ H_ 0.240865 0.36179 0.301484 0.11374
H_ H_ 0.122263 0.424524 0.311878 0.11374
H_ H_ 0.372212 0.429598 0.312802 0.11374
H_ H_ 0.137808 0.240745 0.418627 0.11374
H_ H_ 0.371082 0.238023 0.406541 0.11374
H_ H_ 0.166932 0.277362 0.378851 0.11374
H_ H_ 0.39176 0.270942 0.364203 0.11374
H_ H_ 0.107191 0.361274 0.409584 0.11374
H_ H_ 0.353365 0.361129 0.404268 0.11374
H_ H_ 0.0746942 0.321748 0.448194 0.11374
H_ H_ 0.322825 0.324123 0.446314 0.11374
H_ H_ 0.21167 0.485097 0.3552 0.11374
H_ H_ 0.458198 0.471051 0.333944 0.11374
H_ H_ 0.162029 0.451173 0.386756 0.11374
H_ H_ 0.414258 0.447948 0.37464 0.11374
H_ H_ 0.0515761 0.410803 0.368133 0.11374
H_ H_ 0.287024 0.401529 0.360886 0.11374
H_ H_ 0.181573 0.335076 0.0263321 0.11374
H_ H_ 0.438215 0.337156 0.0239694 0.11374
H_ H_ 0.189327 0.378056 0.490838 0.11374
H_ H_ 0.433139 0.385766 0.484185 0.11374
H_ H_ 0.212571 0.299567 0.425289 0.11374
H_ H_ 0.46961 0.30703 0.423953 0.11374
H_ H_ 0.207672 0.25859 0.467132 0.11374
H_ H_ 0.460383 0.263311 0.460742 0.11374
H_ H_ 0.0137546 0.337064 0.0257321 0.11374
H_ H_ 0.259166 0.33203 0.0330976 0.11374
H_ H_ 0.255024 0.374875 0.071361 0.11374
H_ H_ 0.509961 0.387345 0.0654966 0.11374
H_ H_ 0.128134 0.324017 0.0597276 0.11374
H_ H_ 0.379897 0.335617 0.0434518 0.11374
H_ H_ 0.132593 0.0128479 0.162346 0.11374
H_ H_ 0.375002 0.0119621 0.161958 0.11374
H_ H_ 0.107375 0.480326 0.120779 0.11374
H_ H_ 0.355218 0.4788 0.120868 0.11374
H_ H_ 0.153249 0.392168 0.157908 0.11374
H_ H_ 0.404447 0.389877 0.152256 0.11374
H_ H_ 0.185208 0.432349 0.194307 0.11374
H_ H_ 0.429248 0.422843 0.195675 0.11374
H_ H_ 0.0307194 0.266348 0.10528 0.11374
H_ H_ 0.297389 0.277311 0.0922071 0.11374
H_ H_ 0.078562 0.297957 0.140453 0.11374
H_ H_ 0.339959 0.307015 0.130269 0.11374
H_ H_ 0.20469 0.337961 0.126864 0.11374
H_ H_ 0.451525 0.326607 0.126934 0.11374
H_ H_ 0.0718563 0.4222 0.272957 0.11374
H_ H_ 0.322222 0.41453 0.274433 0.11374
H_ H_ 0.0518628 0.375442 0.233815 0.11374
H_ H_ 0.308233 0.370417 0.234369 0.11374
H_ H_ 0.0188346 0.453942 0.173237 0.11374
H_ H_ 0.28642 0.456165 0.176788 0.11374
H_ H_ 0.0405298 0.497729 0.210966 0.11374
H_ H_ 0.293517 0.492698 0.217554 0.11374
C_ C_ 0.0785252 0.0466722 0.229898 0.62841
C_ C_ 0.335482 0.0467546 0.232389 0.62841
C_ C_ 0.0747106 0.0771354 0.209962 -0.11088
C_ C_ 0.331267 0.0770288 0.212584 -0.11088
C_ C_ 0.0389368 0.0914447 0.207147 -0.11981
C_ C_ 0.295039 0.0929401 0.21143 -0.11981
C_ C_ 0.0331437 0.119074 0.187552 -0.11981
C_ C_ 0.291117 0.118298 0.190229 -0.11981
C_ C_ 0.0672305 0.136336 0.174574 -0.11088
C_ C_ 0.323634 0.133551 0.175743 -0.11088
C_ C_ 0.104068 0.127821 0.180797 -0.11088
C_ C_ 0.358796 0.121637 0.17806 -0.11088
C_ C_ 0.107962 0.0956087 0.194591 -0.11981
C_ C_ 0.361244 0.089181 0.192376 -0.11981
C_ C_ 0.127039 0.144946 0.158014 0.50456
C_ C_ 0.379931 0.134601 0.153457 0.50456
C_ C_ 0.0700316 0.161876 0.1523 0.50456
C_ C_ 0.326338 0.157751 0.151978 0.50456
C_ C_ 0.129916 0.238032 0.0868465 0.19611
C_ C_ 0.385762 0.236026 0.0872479 0.19611
C_ C_ 0.112915 0.220367 0.111778 -0.11981
C_ C_ 0.366417 0.215381 0.110052 -0.11981
C_ C_ 0.122627 0.186036 0.117475 0.26597
C_ C_ 0.373711 0.179727 0.112858 0.26597
C_ C_ 0.147725 0.171852 0.098183 -0.11981
C_ C_ 0.392254 0.164568 0.0896768 -0.11981
C_ C_ 0.160514 0.189277 0.0704821 0.19611
C_ C_ 0.412725 0.185509 0.0672632 0.19611
C_ C_ 0.223626 0.040375 0.172126 0.62841
C_ C_ 0.47498 0.0341686 0.175554 0.62841
C_ C_ 0.247676 0.0585026 0.147014 -0.11088
C_ C_ 0.500719 0.0528254 0.151123 -0.11088
C_ C_ 0.0308268 0.0393636 0.141474 -0.11981
C_ C_ 0.284176 0.0458285 0.141486 -0.11981
C_ C_ 0.0530138 0.0515242 0.116237 -0.11981
C_ C_ 0.30795 0.060631 0.118247 -0.11981
C_ C_ 0.0401137 0.0800461 0.0985099 -0.11088
C_ C_ 0.294298 0.0862037 0.101915 -0.11088
C_ C_ 0.258315 0.0961181 0.103841 -0.11088
C_ C_ 0.507197 0.0928475 0.108847 -0.11088
C_ C_ 0.234422 0.0842594 0.127962 -0.11981
C_ C_ 0.486287 0.0801295 0.133889 -0.11981
C_ C_ 0.0612239 0.103332 0.0805943 0.50456
C_ C_ 0.312454 0.108416 0.0802279 0.50456
C_ C_ 0.255935 0.124497 0.0860185 0.50456
C_ C_ 0.504368 0.123564 0.0928064 0.50456
C_ C_ 0.0709012 0.172503 1.0002 0.19611
C_ C_ 0.30555 0.174847 0.995887 0.19611
C_ C_ 0.0653577 0.147164 0.0220973 -0.11981
C_ C_ 0.305447 0.149657 0.0189259 -0.11981
C_ C_ 0.0455787 0.154116 0.0482934 0.26597
C_ C_ 0.297587 0.158856 0.047513 0.26597
C_ C_ 0.0322236 0.187168 0.0516169 -0.11981
C_ C_ 0.293155 0.194033 0.0541284 -0.11981
C_ C_ 0.0387695 0.212683 0.0283918 0.19611
C_ C_ 0.294456 0.217853 0.0316059 0.19611
C_ C_ 0.15784 0.197975 0.488454 0.62841
C_ C_ 0.422096 0.200744 0.477731 0.62841
C_ C_ 0.168122 0.172116 0.466246 -0.11088
C_ C_ 0.4269 0.168845 0.458692 -0.11088
C_ C_ 0.206321 0.16033 0.464414 -0.11981
C_ C_ 0.460702 0.149732 0.4596 -0.11981
C_ C_ 0.214805 0.134925 0.443549 -0.11981
C_ C_ 0.466659 0.122909 0.439982 -0.11981
C_ C_ 0.184651 0.122441 0.423357 -0.11088
C_ C_ 0.435813 0.112406 0.420891 -0.11088
C_ C_ 0.150492 0.138453 0.421162 -0.11088
C_ C_ 0.399635 0.127047 0.422285 -0.11088
C_ C_ 0.140412 0.159798 0.444961 -0.11981
C_ C_ 0.394999 0.155062 0.440373 -0.11981
C_ C_ 0.125618 0.118035 0.401896 0.50456
C_ C_ 0.377647 0.110574 0.398981 0.50456
C_ C_ 0.179597 0.0944566 0.403316 0.50456
C_ C_ 0.434672 0.0905468 0.395775 0.50456
C_ C_ 0.124569 0.0168423 0.336111 0.19611
C_ C_ 0.380495 0.0149344 0.32712 0.19611
C_ C_ 0.141354 0.0381335 0.359923 -0.11981
C_ C_ 0.395776 0.032899 0.352849 -0.11981
C_ C_ 0.1323 0.0721123 0.365004 0.26597
C_ C_ 0.383272 0.0660689 0.35847 0.26597
C_ C_ 0.106558 0.0845719 0.34484 -0.11981
C_ C_ 0.356811 0.0794766 0.339004 -0.11981
C_ C_ 0.0911243 0.0626588 0.321413 0.19611
C_ C_ 0.341723 0.0612582 0.314564 0.19611
C_ C_ 0.0371014 0.214101 0.414467 0.62841
C_ C_ 0.276494 0.209462 0.42119 0.62841
C_ C_ 0.0118342 0.199385 0.388706 -0.11088
C_ C_ 0.255299 0.19633 0.393831 -0.11088
C_ C_ 0.218117 0.207745 0.386064 -0.11981
C_ C_ 0.467679 0.211122 0.386774 -0.11981
C_ C_ 0.193784 0.190017 0.364531 -0.11981
C_ C_ 0.44375 0.195306 0.364432 -0.11981
C_ C_ 0.209576 0.166413 0.346846 -0.11088
C_ C_ 0.459926 0.170578 0.34584 -0.11088
C_ C_ 0.999632 0.161304 0.345592 -0.11088
C_ C_ 0.246911 0.157563 0.351286 -0.11088
C_ C_ 0.0243289 0.175213 0.367829 -0.11981
C_ C_ 0.269901 0.171306 0.373608 -0.11981
C_ C_ 0.192794 0.142436 0.325317 0.50456
C_ C_ 0.444152 0.148394 0.323025 0.50456
C_ C_ 1.00280354 0.131155 0.327565 0.50456
C_ C_ 0.249717 0.127409 0.332973 0.50456
C_ C_ 0.193248 0.0705014 0.244106 0.19611
C_ C_ 0.444027 0.0769147 0.244306 0.19611
C_ C_ 0.195221 0.0970755 0.266258 -0.11981
C_ C_ 0.450961 0.104177 0.265012 -0.11981
C_ C_ 0.209675 0.0922053 0.294948 0.26597
C_ C_ 0.459676 0.0955079 0.295161 0.26597
C_ C_ 0.217803 0.0573178 0.302629 -0.11981
C_ C_ 0.464908 0.0611965 0.301596 -0.11981
C_ C_ 0.217792 0.0320512 0.279983 0.19611
C_ C_ 0.456392 0.0342763 0.279491 0.19611
C_ C_ 0.169285 0.449777 0.265803 0.62841
C_ C_ 0.421088 0.450856 0.26282 0.62841
C_ C_ 0.175628 0.421113 0.288333 -0.11088
C_ C_ 0.426292 0.423776 0.286243 -0.11088
C_ C_ 0.206868 0.401056 0.284337 -0.11981
C_ C_ 0.458675 0.403612 0.285925 -0.11981
C_ C_ 0.21344 0.372525 0.303617 -0.11981
C_ C_ 0.460769 0.374871 0.30376 -0.11981
C_ C_ 0.18695 0.366363 0.326718 -0.11088
C_ C_ 0.432265 0.367933 0.325819 -0.11088
C_ C_ 0.154878 0.383928 0.330455 -0.11088
C_ C_ 0.397931 0.383178 0.324957 -0.11088
C_ C_ 0.148648 0.411618 0.311008 -0.11981
C_ C_ 0.396511 0.413399 0.307767 -0.11981
C_ C_ 0.129889 0.367781 0.352058 0.50456
C_ C_ 0.372518 0.365711 0.344973 0.50456
C_ C_ 0.183824 0.341006 0.348067 0.50456
C_ C_ 0.425963 0.339664 0.346045 0.50456
C_ C_ 0.124973 0.264437 0.41432 0.19611
C_ C_ 0.365932 0.263908 0.408389 0.19611
C_ C_ 0.145174 0.286482 0.392624 -0.11981
C_ C_ 0.378761 0.283157 0.382043 -0.11981
C_ C_ 0.136099 0.321776 0.390686 0.26597
C_ C_ 0.374622 0.318344 0.381972 0.26597
C_ C_ 0.110079 0.334543 0.411229 -0.11981
C_ C_ 0.356758 0.3331 0.405779 -0.11981
C_ C_ 0.0935447 0.311853 0.433611 0.19611
C_ C_ 0.338542 0.311542 0.428957 0.19611
C_ C_ 0.0392036 0.464982 0.328703 0.62841
C_ C_ 0.278108 0.461977 0.329573 0.62841
C_ C_ 0.0121741 0.446597 0.350655 -0.11088
C_ C_ 0.25034 0.444496 0.352245 -0.11088
C_ C_ 0.218262 0.460633 0.36456 -0.11981
C_ C_ 0.467186 0.454325 0.350575 -0.11981
C_ C_ 0.192068 0.443436 0.384216 -0.11981
C_ C_ 0.443238 0.440087 0.373815 -0.11981
C_ C_ 0.204476 0.414564 0.400366 -0.11088
C_ C_ 0.458315 0.420508 0.397439 -0.11088
C_ C_ 1.000482766 0.410578 0.395959 -0.11088
C_ C_ 0.240727 0.403722 0.395399 -0.11088
C_ C_ 0.0259693 0.423328 0.373565 -0.11981
C_ C_ 0.261644 0.413529 0.368245 -0.11981
C_ C_ 0.186303 0.393931 0.422595 0.50456
C_ C_ 0.439611 0.39601 0.416952 0.50456
C_ C_ 1.0037517 0.382655 0.414413 0.50456
C_ C_ 0.242041 0.374394 0.41357 0.50456
C_ C_ 0.183628 0.326167 0.506446 0.19611
C_ C_ 0.442297 0.331286 0.502915 0.19611
C_ C_ 0.194368 0.352645 0.484802 -0.11981
C_ C_ 0.446204 0.358511 0.480652 -0.11981
C_ C_ 0.204231 0.34412 0.455031 0.26597
C_ C_ 0.458169 0.350114 0.451336 0.26597
C_ C_ 0.208051 0.309088 0.44841 -0.11981
C_ C_ 0.4636 0.315852 0.445906 -0.11981
C_ C_ 0.201707 0.28453 0.472464 0.19611
C_ C_ 0.451728 0.289363 0.466181 0.19611
C_ C_ 0.0763316 0.297726 0.017701 0.62841
C_ C_ 0.324087 0.304219 0.0131047 0.62841
C_ C_ 0.0735101 0.32779 0.0380988 -0.11088
C_ C_ 0.320444 0.331318 0.035466 -0.11088
C_ C_ 0.0386357 0.345789 0.0385603 -0.11981
C_ C_ 0.284928 0.346916 0.0400917 -0.11981
C_ C_ 0.0379451 0.374185 0.0572765 -0.11981
C_ C_ 0.283207 0.373378 0.0603684 -0.11981
C_ C_ 0.0707778 0.387065 0.0735762 -0.11088
C_ C_ 0.317575 0.389171 0.0727277 -0.11088
C_ C_ 0.104038 0.372119 0.0728303 -0.11088
C_ C_ 0.352944 0.375617 0.0675994 -0.11088
C_ C_ 0.105021 0.340604 0.0567545 -0.11981
C_ C_ 0.353427 0.346123 0.0502998 -0.11981
C_ C_ 0.125912 0.384319 0.0973945 0.50456
C_ C_ 0.379474 0.390436 0.0883191 0.50456
C_ C_ 0.0744852 0.412095 0.0965372 0.50456
C_ C_ 0.324247 0.410405 0.0975091 0.50456
C_ C_ 0.129841 0.486653 0.164954 0.19611
C_ C_ 0.381825 0.484446 0.16369 0.19611
C_ C_ 0.11548 0.466573 0.139383 -0.11981
C_ C_ 0.368859 0.465938 0.137702 -0.11981
C_ C_ 0.12228 0.431507 0.136796 0.26597
C_ C_ 0.37928 0.431952 0.131919 0.26597
C_ C_ 0.146632 0.418729 0.15852 -0.11981
C_ C_ 0.397822 0.416786 0.155708 -0.11981
C_ C_ 0.163663 0.440836 0.181004 0.19611
C_ C_ 0.413762 0.435799 0.178735 0.19611
C_ C_ 0.22039 0.288022 0.0817109 0.62841
C_ C_ 0.472985 0.286387 0.0774649 0.62841
C_ C_ 0.246711 0.305657 0.104879 -0.11088
C_ C_ 0.497592 0.302377 0.103294 -0.11088
C_ C_ 0.0267484 0.292919 0.110944 -0.11981
C_ C_ 0.285903 0.296178 0.107281 -0.11981
C_ C_ 0.0526922 0.309416 0.132059 -0.11981
C_ C_ 0.31044 0.311641 0.129941 -0.11981
C_ C_ 0.039563 0.338821 0.145413 -0.11088
C_ C_ 0.296459 0.337053 0.149758 -0.11088
C_ C_ 0.258461 0.344398 0.148629 -0.11088
C_ C_ 0.507955 0.339761 0.14876 -0.11088
C_ C_ 0.234053 0.330041 0.126011 -0.11981
C_ C_ 0.482398 0.32393 0.126324 -0.11981
C_ C_ 0.054977 0.358873 0.169598 0.50456
C_ C_ 0.314281 0.362126 0.168621 0.50456
C_ C_ 0.254492 0.373911 0.165817 0.50456
C_ C_ 0.505331 0.370181 0.165579 0.50456
C_ C_ 0.0631333 0.428887 0.25039 0.19611
C_ C_ 0.309911 0.422318 0.254369 0.19611
C_ C_ 0.0520417 0.401852 0.227952 -0.11981
C_ C_ 0.302285 0.397026 0.232326 -0.11981
C_ C_ 0.0375548 0.410212 0.199408 0.26597
C_ C_ 0.29215 0.409455 0.203054 0.26597
C_ C_ 0.0286755 0.44468 0.195061 -0.11981
C_ C_ 0.288031 0.444741 0.198446 -0.11981
C_ C_ 0.0430956 0.470235 0.215673 0.19611
C_ C_ 0.294183 0.467064 0.221797 0.19611
N_ N_ 0.153462 0.222561 0.0669786 -0.35402
N_ N_ 0.408971 0.220224 0.0666884 -0.35402
N_ N_ 0.107313 0.166654 0.1424 -0.27957
N_ N_ 0.360975 0.158985 0.138935 -0.27957
N_ N_ 0.0390408 0.12846 0.0725689 -0.27957
N_ N_ 0.289011 0.131229 0.0697898 -0.27957
N_ N_ 0.0574485 0.204748 1.00335129 -0.35402
N_ N_ 0.303486 0.209438 0.00274161 -0.35402
N_ N_ 0.102002 0.0304633 0.31642 -0.35402
N_ N_ 0.352126 0.0281677 0.309678 -0.35402
N_ N_ 0.143306 0.0919922 0.391711 -0.27957
N_ N_ 0.399538 0.0890208 0.382732 -0.27957
N_ N_ 0.218469 0.121346 0.314695 -0.27957
N_ N_ 0.464923 0.121056 0.31927 -0.27957
N_ N_ 0.206013 0.0383547 0.251209 -0.35402
N_ N_ 0.446057 0.0418843 0.251317 -0.35402
N_ N_ 0.100906 0.277742 0.434989 -0.35402
N_ N_ 0.345504 0.277554 0.43073 -0.35402
N_ N_ 0.149607 0.341673 0.363996 -0.27957
N_ N_ 0.390192 0.339554 0.35763 -0.27957
N_ N_ 0.210534 0.370538 0.432295 -0.27957
N_ N_ 0.46487 0.375305 0.427921 -0.27957
N_ N_ 0.187574 0.292915 0.499696 -0.35402
N_ N_ 0.44123 0.297071 0.495301 -0.35402
N_ N_ 0.152124 0.473393 0.185026 -0.35402
N_ N_ 0.406456 0.469362 0.182818 -0.35402
N_ N_ 0.108578 0.409793 0.111518 -0.27957
N_ N_ 0.361927 0.41095 0.107189 -0.27957
N_ N_ 0.0313308 0.384057 0.176651 -0.27957
N_ N_ 0.288176 0.385172 0.178299 -0.27957
N_ N_ 0.0579879 0.46175 0.243562 -0.35402
N_ N_ 0.305403 0.457395 0.249477 -0.35402
O_ O_ 0.107102 0.0262704 0.224986 -0.59275
O_ O_ 0.363966 0.0274576 0.226922 -0.59275
O_ O_ 0.0548616 0.0393896 0.252912 -0.41573
O_ O_ 0.310362 0.0360988 0.252582 -0.41573
O_ O_ 0.0404326 0.168013 0.136249 -0.59275
O_ O_ 0.298777 0.172746 0.141444 -0.59275
O_ O_ 0.163867 0.148894 0.16022 -0.59275
O_ O_ 0.417935 0.13667 0.154173 -0.59275
O_ O_ 0.188552 0.0476813 0.177063 -0.59275
O_ O_ 0.438458 0.0395184 0.175564 -0.59275
O_ O_ 0.23832 0.0182036 0.190294 -0.41573
O_ O_ 0.487517 0.011269 0.194972 -0.41573
O_ O_ 0.224609 0.137763 0.0765531 -0.59275
O_ O_ 0.470626 0.134929 0.08445 -0.59275
O_ O_ 0.0985622 0.105175 0.0776126 -0.59275
O_ O_ 0.342537 0.10059 0.0654043 -0.59275
O_ O_ 0.130187 0.217853 0.482432 -0.59275
O_ O_ 0.391393 0.220133 0.471972 -0.59275
O_ O_ 0.193652 0.206912 0.00751892 -0.41573
O_ O_ 0.445585 0.206791 0.00268517 -0.41573
O_ O_ 0.207426 0.0760575 0.393231 -0.59275
O_ O_ 0.458283 0.0663252 0.390453 -0.59275
O_ O_ 0.0874685 0.116781 0.40523 -0.59275
O_ O_ 0.340805 0.10385 0.402842 -0.59275
O_ O_ 0.0748931 0.208655 0.414873 -0.59275
O_ O_ 0.307142 0.192335 0.429232 -0.59275
O_ O_ 0.0245823 0.230107 0.437594 -0.41573
O_ O_ 0.267399 0.235778 0.436702 -0.41573
O_ O_ 0.0346901 0.123913 0.314124 -0.59275
O_ O_ 0.284401 0.118224 0.324985 -0.59275
O_ O_ 0.159344 0.145521 0.312066 -0.59275
O_ O_ 0.407675 0.148306 0.313971 -0.59275
O_ O_ 0.139818 0.469247 0.267821 -0.59275
O_ O_ 0.391068 0.467558 0.263603 -0.59275
O_ O_ 0.194875 0.459686 0.244177 -0.41573
O_ O_ 0.44872 0.46146 0.244272 -0.41573
O_ O_ 0.21157 0.321688 0.356122 -0.59275
O_ O_ 0.452317 0.322246 0.35911 -0.59275
O_ O_ 0.0921258 0.360732 0.346716 -0.59275
O_ O_ 0.334745 0.36348 0.340783 -0.59275
O_ O_ 0.0750429 0.455352 0.32479 -0.59275
O_ O_ 0.312275 0.448819 0.324984 -0.59275
O_ O_ 0.0273515 0.486466 0.308716 -0.41573
O_ O_ 0.268746 0.486443 0.310033 -0.41573
O_ O_ 0.0352027 0.370534 0.422059 -0.59275
O_ O_ 0.274386 0.358723 0.418285 -0.59275
O_ O_ 0.161392 0.405847 0.440643 -0.59275
O_ O_ 0.404139 0.398728 0.427188 -0.59275
O_ O_ 0.106665 0.279322 0.0190999 -0.59275
O_ O_ 0.355282 0.287655 0.0133473 -0.59275
O_ O_ 0.0495101 0.283064 0.495874 -0.41573
O_ O_ 0.300362 0.288098 0.495042 -0.41573
O_ O_ 0.0473347 0.428578 0.107161 -0.59275
O_ O_ 0.297989 0.426795 0.110855 -0.59275
O_ O_ 0.162051 0.378305 0.102813 -0.59275
O_ O_ 0.414693 0.383457 0.0921806 -0.59275
O_ O_ 0.184556 0.295578 0.0765707 -0.59275
O_ O_ 0.441027 0.299667 0.0709106 -0.59275
O_ O_ 0.23524 0.268556 0.06099 -0.41573
O_ O_ 0.482071 0.261238 0.0588237 -0.41573
O_ O_ 0.221883 0.381036 0.17815 -0.59275
O_ O_ 0.473997 0.381363 0.176228 -0.59275
O_ O_ 0.090466 0.35963 0.179232 -0.59275
O_ O_ 0.349203 0.361959 0.179575 -0.59275
Cd Cd 0.180814 -0.005198000000000036 0.716674 0.98062
Cd Cd 0.43661 0.00649849 0.72022 0.98062
Cd Cd 0.0652787 0.247521 0.970102 0.98062
Cd Cd 0.30965 0.24908 0.968964 0.98062
Cd Cd 0.0613541 0.500056 0.781491 0.98062
Cd Cd 0.316426 0.49387 0.779998 0.98062
Cd Cd 0.179276 0.253203 0.534825 0.98062
Cd Cd 0.431888 0.252984 0.52906 0.98062
H_ H_ 0.0254635 0.0864766 0.732161 0.11374
H_ H_ 0.271333 0.0845973 0.727674 0.11374
H_ H_ 0.259823 0.129884 0.688909 0.11374
H_ H_ 0.504263 0.135841 0.698909 0.11374
H_ H_ 0.132239 0.073597 0.687863 0.11374
H_ H_ 0.386396 0.0823609 0.68921 0.11374
H_ H_ 0.113966 0.260759 0.584419 0.11374
H_ H_ 0.368677 0.260951 0.580578 0.11374
H_ H_ 0.0945918 0.227556 0.628106 0.11374
H_ H_ 0.34435 0.226006 0.624551 0.11374
H_ H_ 0.154534 0.140892 0.596547 0.11374
H_ H_ 0.403312 0.142128 0.593707 0.11374
H_ H_ 0.187409 0.183506 0.560984 0.11374
H_ H_ 0.434725 0.178505 0.555664 0.11374
H_ H_ 0.028366 0.00599753 0.637995 0.11374
H_ H_ 0.293357 0.026714 0.6552 0.11374
H_ H_ 0.0814594 0.0377892 0.605895 0.11374
H_ H_ 0.335071 0.0526546 0.616843 0.11374
H_ H_ 0.197409 0.0840156 0.626409 0.11374
H_ H_ 0.452935 0.0899585 0.634299 0.11374
H_ H_ 0.0848276 0.167136 0.979942 0.11374
H_ H_ 0.307977 0.167346 0.972696 0.11374
H_ H_ 0.0383129 0.114608 0.504298 0.11374
H_ H_ 0.308573 0.118279 0.512723 0.11374
H_ H_ 0.0304667 0.189421 0.573558 0.11374
H_ H_ 0.27197 0.196891 0.569423 0.11374
H_ H_ 0.039801 0.235631 0.533359 0.11374
H_ H_ 0.277274 0.237651 0.528225 0.11374
H_ H_ 0.226276 0.151234 0.984839 0.11374
H_ H_ 0.491299 0.166246 0.968871 0.11374
H_ H_ 0.993785 0.124091 0.938215 0.11374
H_ H_ 0.234007 0.101863 0.950421 0.11374
H_ H_ 0.124758 0.176729 0.936344 0.11374
H_ H_ 0.374546 0.169117 0.93837 0.11374
H_ H_ 0.119108 0.487643 0.838081 0.11374
H_ H_ 0.375827 0.488922 0.833458 0.11374
H_ H_ 0.155152 0.0194495 0.879536 0.11374
H_ H_ 0.404288 0.0149184 0.881314 0.11374
H_ H_ 0.0983105 0.104432 0.847541 0.11374
H_ H_ 0.354277 0.103772 0.847456 0.11374
H_ H_ 0.0772514 0.0686195 0.800907 0.11374
H_ H_ 0.329327 0.0693448 0.803045 0.11374
H_ H_ 0.208913 0.223524 0.901174 0.11374
H_ H_ 0.454913 0.229969 0.908694 0.11374
H_ H_ 0.166485 0.195143 0.860113 0.11374
H_ H_ 0.418197 0.208354 0.867402 0.11374
H_ H_ 0.0508667 0.157885 0.883219 0.11374
H_ H_ 0.282839 0.143193 0.888833 0.11374
H_ H_ 0.178725 0.0740699 0.722179 0.11374
H_ H_ 0.43551 0.0845982 0.727543 0.11374
H_ H_ 0.19158 0.121859 0.758742 0.11374
H_ H_ 0.436895 0.127907 0.767108 0.11374
H_ H_ 0.216779 0.0438384 0.824225 0.11374
H_ H_ 0.473541 0.054125 0.829577 0.11374
H_ H_ 0.20448 -0.001758999999999955 0.785271 0.11374
H_ H_ 0.463701 0.00956699 0.789955 0.11374
H_ H_ 0.22578 0.413596 0.77362 0.11374
H_ H_ 0.47925 0.417064 0.773319 0.11374
H_ H_ 0.98385 0.376425 0.816212 0.11374
H_ H_ 0.230405 0.366633 0.809813 0.11374
H_ H_ 0.107892 0.418088 0.803011 0.11374
H_ H_ 0.363131 0.419531 0.809246 0.11374
H_ H_ 0.11719 0.237881 0.911681 0.11374
H_ H_ 0.378837 0.235746 0.91702 0.11374
H_ H_ 0.144996 0.272519 0.872451 0.11374
H_ H_ 0.409415 0.270162 0.877481 0.11374
H_ H_ 0.0906833 0.363019 0.908005 0.11374
H_ H_ 0.352222 0.357641 0.910514 0.11374
H_ H_ 0.06528 0.324954 0.950127 0.11374
H_ H_ 0.323315 0.322589 0.949277 0.11374
H_ H_ 0.211403 0.479513 0.849302 0.11374
H_ H_ 0.460241 0.472799 0.8391 0.11374
H_ H_ 0.169311 0.454897 0.892546 0.11374
H_ H_ 0.417183 0.443787 0.878124 0.11374
H_ H_ 0.0415356 0.411531 0.871893 0.11374
H_ H_ 0.297867 0.4126 0.870152 0.11374
H_ H_ 0.182766 0.334267 0.528836 0.11374
H_ H_ 0.44302 0.337054 0.526959 0.11374
H_ H_ 0.183613 0.379601 0.988138 0.11374
H_ H_ 0.436449 0.377276 0.98402 0.11374
H_ H_ 0.217671 0.30139 0.926379 0.11374
H_ H_ 0.476356 0.301526 0.925015 0.11374
H_ H_ 0.216038 0.258603 0.966792 0.11374
H_ H_ 0.459066 0.255315 0.963907 0.11374
H_ H_ 0.0220443 0.342548 0.515079 0.11374
H_ H_ 0.262214 0.326913 0.530869 0.11374
H_ H_ 0.255514 0.372014 0.566729 0.11374
H_ H_ 0.509011 0.386957 0.560016 0.11374
H_ H_ 0.12861 0.324844 0.557543 0.11374
H_ H_ 0.383521 0.33026 0.549875 0.11374
H_ H_ 0.123822 0.00707614 0.66396 0.11374
H_ H_ 0.381061 0.0159231 0.665174 0.11374
H_ H_ 0.0876818 0.471129 0.627799 0.11374
H_ H_ 0.343787 0.473776 0.623531 0.11374
H_ H_ 0.150967 0.385141 0.657856 0.11374
H_ H_ 0.398611 0.388146 0.659026 0.11374
H_ H_ 0.180358 0.420528 0.696814 0.11374
H_ H_ 0.422082 0.42352 0.70124 0.11374
H_ H_ 0.0506402 0.286893 0.591639 0.11374
H_ H_ 0.29001 0.271353 0.594683 0.11374
H_ H_ 0.0913032 0.315185 0.632052 0.11374
H_ H_ 0.333561 0.30367 0.635393 0.11374
H_ H_ 0.207007 0.347271 0.612718 0.11374
H_ H_ 0.447707 0.338129 0.61753 0.11374
H_ H_ 0.0501403 0.419446 0.779998 0.11374
H_ H_ 0.31423 0.412521 0.776408 0.11374
H_ H_ 0.0552903 0.376665 0.736533 0.11374
H_ H_ 0.291759 0.368542 0.740609 0.11374
H_ H_ 0.0279691 0.453516 0.675965 0.11374
H_ H_ 0.278734 0.447527 0.675431 0.11374
H_ H_ 0.0419458 0.498096 0.714216 0.11374
H_ H_ 0.276152 0.488014 0.717309 0.11374
C_ C_ 0.0873908 0.044697 0.73483 0.62841
C_ C_ 0.338016 0.0499146 0.733585 0.62841
C_ C_ 0.0799936 0.0749649 0.713205 -0.11088
C_ C_ 0.330856 0.0812378 0.7143 -0.11088
C_ C_ 0.0458914 0.0906443 0.713027 -0.11981
C_ C_ 0.293828 0.0951763 0.712477 -0.11981
C_ C_ 0.0365242 0.116442 0.691731 -0.11981
C_ C_ 0.288187 0.121437 0.691181 -0.11981
C_ C_ 0.0616924 0.123059 0.667322 -0.11088
C_ C_ 0.318042 0.133605 0.672176 -0.11088
C_ C_ 0.0963622 0.10897 0.667623 -0.11088
C_ C_ 0.356283 0.125705 0.677969 -0.11088
C_ C_ 0.107131 0.0860591 0.689878 -0.11981
C_ C_ 0.361805 0.097534 0.697103 -0.11981
C_ C_ 0.121854 0.130047 0.649003 0.50456
C_ C_ 0.378501 0.139797 0.6546 0.50456
C_ C_ 0.0673559 0.153507 0.649328 0.50456
C_ C_ 0.322111 0.158769 0.649124 0.50456
C_ C_ 0.123794 0.233486 0.587377 0.19611
C_ C_ 0.378512 0.235647 0.583998 0.19611
C_ C_ 0.109939 0.212792 0.612182 -0.11981
C_ C_ 0.364817 0.215352 0.608701 -0.11981
C_ C_ 0.117723 0.178049 0.613561 0.26597
C_ C_ 0.374968 0.181592 0.613501 0.26597
C_ C_ 0.144108 0.166062 0.593776 -0.11981
C_ C_ 0.399848 0.170011 0.592699 -0.11981
C_ C_ 0.159967 0.18929 0.571269 0.19611
C_ C_ 0.416079 0.192165 0.570776 0.19611
C_ C_ 0.217478 0.0350586 0.668305 0.62841
C_ C_ 0.473818 0.0386582 0.67436 0.62841
C_ C_ 0.242499 0.0522056 0.643621 -0.11088
C_ C_ 0.497519 0.0542858 0.649197 -0.11088
C_ C_ 0.0251473 0.032755 0.63274 -0.11981
C_ C_ 0.282422 0.0473945 0.643077 -0.11981
C_ C_ 0.0532086 0.0495824 0.611936 -0.11981
C_ C_ 0.30613 0.0609712 0.619284 -0.11981
C_ C_ 0.0432449 0.0819086 0.600871 -0.11088
C_ C_ 0.290905 0.0840489 0.599961 -0.11088
C_ C_ 0.252601 0.0940834 0.603295 -0.11088
C_ C_ 0.509873 0.0973682 0.608825 -0.11088
C_ C_ 0.227787 0.0769517 0.624321 -0.11981
C_ C_ 0.482116 0.0803167 0.631045 -0.11981
C_ C_ 0.0569336 0.0996923 0.57576 0.50456
C_ C_ 0.30721 0.105816 0.57843 0.50456
C_ C_ 0.248599 0.121306 0.583339 0.50456
C_ C_ 0.504915 0.122093 0.586915 0.50456
C_ C_ 0.0541316 0.167304 0.490728 0.19611
C_ C_ 0.315465 0.170237 0.495839 0.19611
C_ C_ 0.0467158 0.140534 0.511585 -0.11981
C_ C_ 0.303468 0.144801 0.517031 -0.11981
C_ C_ 0.0429816 0.148261 0.542718 0.26597
C_ C_ 0.289348 0.153605 0.544438 0.26597
C_ C_ 0.0391601 0.182288 0.550619 -0.11981
C_ C_ 0.282988 0.188059 0.547858 -0.11981
C_ C_ 0.0429387 0.208502 0.528314 0.19611
C_ C_ 0.287755 0.212576 0.52467 0.19611
C_ C_ 0.168067 0.199187 0.98632 0.62841
C_ C_ 0.421499 0.197613 0.981425 0.62841
C_ C_ 0.173884 0.168573 0.964305 -0.11088
C_ C_ 0.42838 0.166196 0.961946 -0.11088
C_ C_ 0.205416 0.146833 0.966963 -0.11981
C_ C_ 0.464357 0.152244 0.959872 -0.11981
C_ C_ 0.212716 0.120499 0.946114 -0.11981
C_ C_ 0.46849 0.123931 0.939878 -0.11981
C_ C_ 0.188229 0.116597 0.921509 -0.11088
C_ C_ 0.437572 0.11166 0.92289 -0.11088
C_ C_ 0.154332 0.132935 0.921784 -0.11088
C_ C_ 0.401523 0.122014 0.927049 -0.11088
C_ C_ 0.148719 0.161691 0.940673 -0.11981
C_ C_ 0.398558 0.152885 0.942689 -0.11981
C_ C_ 0.128054 0.113204 0.904606 0.50456
C_ C_ 0.377621 0.105981 0.906125 0.50456
C_ C_ 0.180827 0.0879167 0.903209 0.50456
C_ C_ 0.433911 0.0855756 0.901665 0.50456
C_ C_ 0.129943 0.0136488 0.836139 0.19611
C_ C_ 0.374023 0.00813477 0.839218 0.19611
C_ C_ 0.143484 0.0326815 0.861726 -0.11981
C_ C_ 0.388308 0.0276831 0.864161 -0.11981
C_ C_ 0.130035 0.0649944 0.866106 0.26597
C_ C_ 0.381312 0.0624472 0.867736 0.26597
C_ C_ 0.10811 0.0791617 0.84397 -0.11981
C_ C_ 0.357971 0.0774521 0.845719 -0.11981
C_ C_ 0.0953277 0.0592625 0.818227 0.19611
C_ C_ 0.347091 0.0577015 0.81991 0.19611
C_ C_ 0.0277281 0.207133 0.923912 0.62841
C_ C_ 0.279352 0.204148 0.9191 0.62841
C_ C_ 0.00457901 0.192859 0.897173 -0.11088
C_ C_ 0.25275 0.187495 0.896076 -0.11088
C_ C_ 0.216499 0.200366 0.889375 -0.11981
C_ C_ 0.46835 0.211048 0.894405 -0.11981
C_ C_ 0.193487 0.185179 0.866557 -0.11981
C_ C_ 0.445399 0.195954 0.871233 -0.11981
C_ C_ 0.204542 0.158789 0.848404 -0.11088
C_ C_ 0.458218 0.16788 0.85525 -0.11088
C_ C_ 0.997958 0.151231 0.856903 -0.11088
C_ C_ 0.242049 0.148672 0.852233 -0.11088
C_ C_ 0.0198312 0.166181 0.880554 -0.11981
C_ C_ 0.264674 0.160217 0.878063 -0.11981
C_ C_ 0.187744 0.13785 0.825778 0.50456
C_ C_ 0.439756 0.147228 0.833605 0.50456
C_ C_ 1.00379674 0.123003 0.838177 0.50456
C_ C_ 0.24405 0.119248 0.834806 0.50456
C_ C_ 0.184855 0.0677375 0.744168 0.19611
C_ C_ 0.44275 0.0778466 0.750815 0.19611
C_ C_ 0.193048 0.0954274 0.765319 -0.11981
C_ C_ 0.443558 0.10312 0.773597 -0.11981
C_ C_ 0.20506 0.0865299 0.793915 0.26597
C_ C_ 0.450937 0.093033 0.803125 0.26597
C_ C_ 0.210489 0.0515814 0.80045 -0.11981
C_ C_ 0.457334 0.0595452 0.809394 -0.11981
C_ C_ 0.199486 0.0256033 0.779817 0.19611
C_ C_ 0.457074 0.035692 0.785817 0.19611
C_ C_ 0.165456 0.449622 0.764878 0.62841
C_ C_ 0.41342 0.448898 0.764749 0.62841
C_ C_ 0.166189 0.419144 0.784117 -0.11088
C_ C_ 0.419479 0.421479 0.787611 -0.11088
C_ C_ 0.203408 0.408168 0.790161 -0.11981
C_ C_ 0.455815 0.405617 0.787084 -0.11981
C_ C_ 0.209145 0.383999 0.814191 -0.11981
C_ C_ 0.462684 0.378947 0.808455 -0.11981
C_ C_ 0.177613 0.377362 0.834635 -0.11088
C_ C_ 0.431959 0.366372 0.828042 -0.11088
C_ C_ 0.141466 0.386565 0.827889 -0.11088
C_ C_ 0.396809 0.380052 0.826736 -0.11088
C_ C_ 0.135804 0.40636 0.803449 -0.11981
C_ C_ 0.391271 0.409005 0.808772 -0.11981
C_ C_ 0.116013 0.362881 0.843817 0.50456
C_ C_ 0.373419 0.364081 0.848417 0.50456
C_ C_ 0.171805 0.348208 0.854597 0.50456
C_ C_ 0.428648 0.341682 0.850076 0.50456
C_ C_ 0.110812 0.264639 0.911489 0.19611
C_ C_ 0.371329 0.262475 0.915351 0.19611
C_ C_ 0.126919 0.284734 0.88947 -0.11981
C_ C_ 0.389218 0.28227 0.892159 -0.11981
C_ C_ 0.11709 0.319747 0.885727 0.26597
C_ C_ 0.379325 0.317096 0.887449 0.26597
C_ C_ 0.0960835 0.334437 0.909383 -0.11981
C_ C_ 0.355979 0.330628 0.909529 -0.11981
C_ C_ 0.0823677 0.313027 0.932465 0.19611
C_ C_ 0.337761 0.310413 0.9325 0.19611
C_ C_ 0.0268272 0.460653 0.829692 0.62841
C_ C_ 0.279687 0.459912 0.82736 0.62841
C_ C_ 0.00143421 0.447688 0.856322 -0.11088
C_ C_ 0.256197 0.445548 0.8537 -0.11088
C_ C_ 0.218495 0.456767 0.86041 -0.11981
C_ C_ 0.471729 0.455089 0.854722 -0.11981
C_ C_ 0.195829 0.442011 0.884481 -0.11981
C_ C_ 0.448339 0.439993 0.876966 -0.11981
C_ C_ 0.208431 0.416488 0.901891 -0.11088
C_ C_ 0.463656 0.414545 0.895817 -0.11088
C_ C_ 0.995562 0.412765 0.902692 -0.11088
C_ C_ 0.244328 0.404329 0.897081 -0.11088
C_ C_ 0.0161247 0.425315 0.878019 -0.11981
C_ C_ 0.268925 0.418285 0.87345 -0.11981
C_ C_ 0.191277 0.396087 0.923787 0.50456
C_ C_ 0.445322 0.394105 0.917509 0.50456
C_ C_ -0.00039800000000000946 0.382523 0.921017 0.50456
C_ C_ 0.245579 0.374461 0.914641 0.50456
C_ C_ 0.184562 0.325835 0.00513777 0.19611
C_ C_ 0.445073 0.328644 0.00289882 0.19611
C_ C_ 0.189192 0.351988 0.983265 -0.11981
C_ C_ 0.445166 0.351852 0.978822 -0.11981
C_ C_ 0.204219 0.343453 0.954596 0.26597
C_ C_ 0.457424 0.342781 0.950326 0.26597
C_ C_ 0.216073 0.309711 0.949803 -0.11981
C_ C_ 0.466949 0.308434 0.946148 -0.11981
C_ C_ 0.209323 0.284542 0.971483 0.19611
C_ C_ 0.456799 0.283398 0.968982 0.19611
C_ C_ 0.0775427 0.295279 0.514231 0.62841
C_ C_ 0.329958 0.29922 0.511633 0.62841
C_ C_ 0.0741817 0.328636 0.531919 -0.11088
C_ C_ 0.326072 0.326469 0.535963 -0.11088
C_ C_ 0.0394073 0.34538 0.533518 -0.11981
C_ C_ 0.288771 0.338855 0.541172 -0.11981
C_ C_ 0.0338791 0.371866 0.553843 -0.11981
C_ C_ 0.284682 0.366096 0.561638 -0.11981
C_ C_ 0.0630727 0.382265 0.5758 -0.11088
C_ C_ 0.315266 0.379178 0.579656 -0.11088
C_ C_ 0.0970211 0.368791 0.574308 -0.11088
C_ C_ 0.352623 0.368907 0.573694 -0.11088
C_ C_ 0.101463 0.338856 0.554786 -0.11981
C_ C_ 0.357036 0.339828 0.554695 -0.11981
C_ C_ 0.120228 0.381899 0.598763 0.50456
C_ C_ 0.375859 0.386729 0.595082 0.50456
C_ C_ 0.0651624 0.406836 0.598499 0.50456
C_ C_ 0.319102 0.404175 0.601331 0.50456
C_ C_ 0.124015 0.478588 0.66691 0.19611
C_ C_ 0.376235 0.484335 0.664006 0.19611
C_ C_ 0.108177 0.459554 0.642694 -0.11981
C_ C_ 0.363653 0.463874 0.639386 -0.11981
C_ C_ 0.116374 0.425412 0.638907 0.26597
C_ C_ 0.371287 0.428596 0.637418 0.26597
C_ C_ 0.144617 0.411676 0.657855 -0.11981
C_ C_ 0.389064 0.413302 0.662072 -0.11981
C_ C_ 0.16047 0.431558 0.681134 0.19611
C_ C_ 0.40129 0.434481 0.686205 0.19611
C_ C_ 0.216534 0.286786 0.577285 0.62841
C_ C_ 0.466667 0.290103 0.574731 0.62841
C_ C_ 0.242013 0.303525 0.601938 -0.11088
C_ C_ 0.488115 0.300062 0.604374 -0.11088
C_ C_ 0.0376039 0.302613 0.606615 -0.11981
C_ C_ 0.278739 0.290953 0.609858 -0.11981
C_ C_ 0.0592446 0.316624 0.630948 -0.11981
C_ C_ 0.302306 0.307314 0.632933 -0.11981
C_ C_ 0.0406317 0.33676 0.652053 -0.11088
C_ C_ 0.285847 0.32843 0.653422 -0.11088
C_ C_ 0.24958 0.338872 0.648022 -0.11088
C_ C_ 0.499173 0.344003 0.643861 -0.11088
C_ C_ 0.228573 0.329066 0.621264 -0.11981
C_ C_ 0.474158 0.32674 0.622191 -0.11981
C_ C_ 0.0578715 0.3592 0.673521 0.50456
C_ C_ 0.30276 0.351548 0.674529 0.50456
C_ C_ 0.247735 0.369871 0.664282 0.50456
C_ C_ 0.495385 0.368447 0.666237 0.50456
C_ C_ 0.0511797 0.42735 0.756186 0.19611
C_ C_ 0.302786 0.419845 0.755115 0.19611
C_ C_ 0.0508121 0.403717 0.732865 -0.11981
C_ C_ 0.292149 0.394257 0.733648 -0.11981
C_ C_ 0.0455359 0.413226 0.702511 0.26597
C_ C_ 0.285087 0.402682 0.704562 0.26597
C_ C_ 0.038634 0.446941 0.697536 -0.11981
C_ C_ 0.28282 0.437971 0.698629 -0.11981
C_ C_ 0.0444373 0.471096 0.719864 0.19611
C_ C_ 0.287789 0.46323 0.721505 0.19611
N_ N_ 0.145058 0.220712 0.565683 -0.35402
N_ N_ 0.4081 0.225092 0.566552 -0.35402
N_ N_ 0.10319 0.156546 0.638303 -0.27957
N_ N_ 0.359636 0.1611 0.638347 -0.27957
N_ N_ 0.0322272 0.120661 0.564823 -0.27957
N_ N_ 0.283448 0.129103 0.568697 -0.27957
N_ N_ 0.051783 0.201315 0.499715 -0.35402
N_ N_ 0.303923 0.203 0.49785 -0.35402
N_ N_ 0.105102 0.0261781 0.815552 -0.35402
N_ N_ 0.354505 0.0241572 0.817001 -0.35402
N_ N_ 0.14438 0.0858994 0.892141 -0.27957
N_ N_ 0.397407 0.0831157 0.891309 -0.27957
N_ N_ 0.21285 0.112993 0.81722 -0.27957
N_ N_ 0.462098 0.121187 0.824439 -0.27957
N_ N_ 0.185867 0.033981 0.751857 -0.35402
N_ N_ 0.44677 0.0444362 0.757498 -0.35402
N_ N_ 0.0890288 0.277943 0.933598 -0.35402
N_ N_ 0.345541 0.276711 0.93572 -0.35402
N_ N_ 0.133716 0.340083 0.86037 -0.27957
N_ N_ 0.3935 0.338929 0.86226 -0.27957
N_ N_ 0.213754 0.370508 0.932259 -0.27957
N_ N_ 0.468187 0.371693 0.928976 -0.27957
N_ N_ 0.195107 0.293613 -0.0008059999999999734 -0.35402
N_ N_ 0.446762 0.293587 0.997187 -0.35402
N_ N_ 0.152565 0.465292 0.683778 -0.35402
N_ N_ 0.394725 0.469577 0.687713 -0.35402
N_ N_ 0.10078 0.406563 0.612248 -0.27957
N_ N_ 0.356421 0.408939 0.611708 -0.27957
N_ N_ 0.0409103 0.388285 0.67845 -0.27957
N_ N_ 0.280328 0.37794 0.680338 -0.27957
N_ N_ 0.0506828 0.46085 0.748686 -0.35402
N_ N_ 0.299868 0.4539 0.749125 -0.35402
O_ O_ 0.113098 0.0222203 0.726441 -0.59275
O_ O_ 0.369319 0.0337512 0.728636 -0.59275
O_ O_ 0.064357 0.034801 0.756877 -0.41573
O_ O_ 0.315802 0.0409096 0.756435 -0.41573
O_ O_ 0.0385645 0.165666 0.634599 -0.59275
O_ O_ 0.294163 0.171217 0.63446 -0.59275
O_ O_ 0.159397 0.133409 0.650747 -0.59275
O_ O_ 0.415977 0.143346 0.657889 -0.59275
O_ O_ 0.182473 0.0416559 0.671421 -0.59275
O_ O_ 0.438924 0.0486818 0.678882 -0.59275
O_ O_ 0.227934 0.0133068 0.689227 -0.41573
O_ O_ 0.486828 0.0175406 0.694144 -0.41573
O_ O_ 0.216533 0.12782 0.568953 -0.59275
O_ O_ 0.472183 0.128768 0.575256 -0.59275
O_ O_ 0.0944799 0.106408 0.571408 -0.59275
O_ O_ 0.34386 0.109408 0.571492 -0.59275
O_ O_ 0.143524 0.222473 0.980008 -0.59275
O_ O_ 0.393752 0.216978 0.974881 -0.59275
O_ O_ 0.184944 0.209065 0.508992 -0.41573
O_ O_ 0.446632 0.210217 0.500595 -0.41573
O_ O_ 0.205359 0.0662698 0.894331 -0.59275
O_ O_ 0.461614 0.0703133 0.888857 -0.59275
O_ O_ 0.0914233 0.116931 0.90579 -0.59275
O_ O_ 0.340384 0.100139 0.910612 -0.59275
O_ O_ 0.0586609 0.192284 0.931428 -0.59275
O_ O_ 0.316844 0.202376 0.917135 -0.59275
O_ O_ 0.0196855 0.233601 0.941481 -0.41573
O_ O_ 0.268117 0.224996 0.93969 -0.41573
O_ O_ 0.0377703 0.118655 0.827298 -0.59275
O_ O_ 0.277298 0.109264 0.825626 -0.59275
O_ O_ 0.151092 0.135753 0.821253 -0.59275
O_ O_ 0.403587 0.147353 0.825716 -0.59275
O_ O_ 0.140774 0.473282 0.770479 -0.59275
O_ O_ 0.383508 0.466586 0.763536 -0.59275
O_ O_ 0.189974 0.455961 0.742201 -0.41573
O_ O_ 0.442695 0.459264 0.746304 -0.41573
O_ O_ 0.200247 0.334037 0.86884 -0.59275
O_ O_ 0.456931 0.320724 0.855973 -0.59275
O_ O_ 0.0788508 0.35942 0.836781 -0.59275
O_ O_ 0.335124 0.362033 0.846449 -0.59275
O_ O_ 0.0620283 0.453 0.82601 -0.59275
O_ O_ 0.317053 0.455023 0.825568 -0.59275
O_ O_ 0.0136521 0.481665 0.808658 -0.41573
O_ O_ 0.266853 0.480355 0.807332 -0.41573
O_ O_ 0.0316472 0.372222 0.929794 -0.59275
O_ O_ 0.279117 0.36403 0.925735 -0.59275
O_ O_ 0.15516 0.39532 0.931118 -0.59275
O_ O_ 0.407964 0.389704 0.920506 -0.59275
O_ O_ 0.106925 0.276135 0.518503 -0.59275
O_ O_ 0.361555 0.281736 0.51068 -0.59275
O_ O_ 0.0489081 0.288611 0.998216 -0.41573
O_ O_ 0.295926 0.292886 0.994638 -0.41573
O_ O_ 0.037766 0.42373 0.608025 -0.59275
O_ O_ 0.291456 0.42195 0.613434 -0.59275
O_ O_ 0.157353 0.380505 0.600267 -0.59275
O_ O_ 0.413376 0.392894 0.591468 -0.59275
O_ O_ 0.179884 0.294698 0.5745 -0.59275
O_ O_ 0.432484 0.30031 0.569845 -0.59275
O_ O_ 0.229766 0.265358 0.558525 -0.41573
O_ O_ 0.475646 0.265023 0.558407 -0.41573
O_ O_ 0.21501 0.378293 0.675346 -0.59275
O_ O_ 0.466785 0.387445 0.668757 -0.59275
O_ O_ 0.0885033 0.352967 0.689192 -0.59275
O_ O_ 0.339473 0.352316 0.681237 -0.59275
Cd Cd 0.184153 0.503985 0.218233 0.98062
Cd Cd 0.437451 0.502615 0.216642 0.98062
Cd Cd 0.0701676 0.741161 0.465965 0.98062
Cd Cd 0.321815 0.748303 0.469637 0.98062
Cd Cd 0.0696507 -4.94321e-05 0.281793 0.98062
Cd Cd 0.321346 0.992445 0.278701 0.98062
Cd Cd 0.177728 0.756517 0.0294374 0.98062
Cd Cd 0.429833 0.751028 0.0337206 0.98062
H_ H_ 0.022717 0.572404 0.211965 0.11374
H_ H_ 0.273095 0.589911 0.231531 0.11374
H_ H_ 0.264798 0.642946 0.201104 0.11374
H_ H_ 0.512138 0.636192 0.18389 0.11374
H_ H_ 0.142849 0.593444 0.193887 0.11374
H_ H_ 0.38462 0.580724 0.192079 0.11374
H_ H_ 0.114521 0.767077 0.0784594 0.11374
H_ H_ 0.373257 0.763026 0.0858906 0.11374
H_ H_ 0.0845703 0.732844 0.12146 0.11374
H_ H_ 0.352101 0.732026 0.130997 0.11374
H_ H_ 0.158647 0.650557 0.100184 0.11374
H_ H_ 0.396231 0.640448 0.0964141 0.11374
H_ H_ 0.18326 0.686827 0.0570756 0.11374
H_ H_ 0.403743 0.671935 0.0478274 0.11374
H_ H_ 0.0330118 0.521388 0.154857 0.11374
H_ H_ 0.298697 0.540122 0.164449 0.11374
H_ H_ 0.075762 0.55436 0.117899 0.11374
H_ H_ 0.33959 0.570338 0.126317 0.11374
H_ H_ 0.199232 0.587362 0.128683 0.11374
H_ H_ 0.451484 0.594016 0.127772 0.11374
H_ H_ 0.0662538 0.659862 0.469813 0.11374
H_ H_ 0.318484 0.663701 0.475331 0.11374
H_ H_ 0.0607712 0.623745 0.0210058 0.11374
H_ H_ 0.30769 0.623675 0.0113859 0.11374
H_ H_ 0.014292 0.702048 0.0756516 0.11374
H_ H_ 0.275032 0.699563 0.0742566 0.11374
H_ H_ 0.0279677 0.743152 0.0333691 0.11374
H_ H_ 0.284369 0.745821 0.0346078 0.11374
H_ H_ 0.234968 0.664201 0.473569 0.11374
H_ H_ 0.479038 0.664133 0.482837 0.11374
H_ H_ 0.997007 0.627435 0.433053 0.11374
H_ H_ 0.239905 0.611175 0.443558 0.11374
H_ H_ 0.121115 0.672773 0.441146 0.11374
H_ H_ 0.366583 0.669379 0.441059 0.11374
H_ H_ 0.131812 0.98968 0.333225 0.11374
H_ H_ 0.389152 0.98841 0.322735 0.11374
H_ H_ 0.163092 0.529469 0.373454 0.11374
H_ H_ 0.408224 0.520178 0.379813 0.11374
H_ H_ 0.097443 0.610225 0.342279 0.11374
H_ H_ 0.359425 0.61111 0.345564 0.11374
H_ H_ 0.0652248 0.569285 0.30575 0.11374
H_ H_ 0.329342 0.57656 0.301133 0.11374
H_ H_ 0.219071 0.732227 0.39854 0.11374
H_ H_ 0.451522 0.727901 0.400505 0.11374
H_ H_ 0.176254 0.701572 0.359909 0.11374
H_ H_ 0.41249 0.699306 0.360288 0.11374
H_ H_ 0.0466265 0.66427 0.372712 0.11374
H_ H_ 0.304144 0.657832 0.381123 0.11374
H_ H_ 0.198585 0.586478 0.222534 0.11374
H_ H_ 0.440914 0.590437 0.22058 0.11374
H_ H_ 0.205591 0.629707 0.263589 0.11374
H_ H_ 0.45465 0.631133 0.262375 0.11374
H_ H_ 0.228206 0.548511 0.323853 0.11374
H_ H_ 0.476213 0.547916 0.32066 0.11374
H_ H_ 0.201415 0.505723 0.28518 0.11374
H_ H_ 0.468406 0.506699 0.277705 0.11374
H_ H_ 0.235029 0.911164 0.274146 0.11374
H_ H_ 0.48526 0.907138 0.269986 0.11374
H_ H_ 0.99179 0.871574 0.317326 0.11374
H_ H_ 0.242971 0.863687 0.310891 0.11374
H_ H_ 0.120011 0.9163 0.310723 0.11374
H_ H_ 0.376037 0.922835 0.309268 0.11374
H_ H_ 0.136923 0.72848 0.412328 0.11374
H_ H_ 0.385213 0.73774 0.415581 0.11374
H_ H_ 0.156326 0.766443 0.369609 0.11374
H_ H_ 0.416421 0.776879 0.375888 0.11374
H_ H_ 0.091726 0.849658 0.402114 0.11374
H_ H_ 0.342445 0.857152 0.400382 0.11374
H_ H_ 0.0766931 0.81606 0.447235 0.11374
H_ H_ 0.317082 0.818763 0.443614 0.11374
H_ H_ 0.206552 0.961545 0.335483 0.11374
H_ H_ 0.469393 0.984303 0.354943 0.11374
H_ H_ 0.164287 0.933729 0.3732 0.11374
H_ H_ 0.421098 0.943002 0.379841 0.11374
H_ H_ 0.0508602 0.912282 0.37337 0.11374
H_ H_ 0.304496 0.915219 0.377172 0.11374
H_ H_ 0.193729 0.835755 0.0290399 0.11374
H_ H_ 0.447261 0.837127 0.0339197 0.11374
H_ H_ 0.208817 0.878287 0.489032 0.11374
H_ H_ 0.46316 0.884536 0.488268 0.11374
H_ H_ 0.218471 0.802293 0.424789 0.11374
H_ H_ 0.473681 0.800723 0.427371 0.11374
H_ H_ 0.21055 0.757447 0.463192 0.11374
H_ H_ 0.46022 0.758739 0.46874 0.11374
H_ H_ 0.0240734 0.841163 0.0206865 0.11374
H_ H_ 0.269166 0.83952 0.0133694 0.11374
H_ H_ 0.262205 0.891612 0.0470828 0.11374
H_ H_ 0.509819 0.872365 0.0747913 0.11374
H_ H_ 0.140022 0.831347 0.0488088 0.11374
H_ H_ 0.380896 0.82701 0.0533857 0.11374
H_ H_ 0.122326 0.514136 0.164387 0.11374
H_ H_ 0.368497 0.508604 0.169922 0.11374
H_ H_ 0.0982311 0.975851 0.12555 0.11374
H_ H_ 0.35378 0.978562 0.118096 0.11374
H_ H_ 0.164844 0.890324 0.150965 0.11374
H_ H_ 0.392795 0.886396 0.153519 0.11374
H_ H_ 0.189461 0.924086 0.195366 0.11374
H_ H_ 0.42482 0.921079 0.194597 0.11374
H_ H_ 0.0357119 0.774911 0.0981514 0.11374
H_ H_ 0.29292 0.780757 0.0874413 0.11374
H_ H_ 0.0794991 0.810066 0.134212 0.11374
H_ H_ 0.336054 0.80279 0.126315 0.11374
H_ H_ 0.203288 0.841656 0.119935 0.11374
H_ H_ 0.453705 0.838545 0.122741 0.11374
H_ H_ 0.0689199 0.916877 0.277196 0.11374
H_ H_ 0.31972 0.91132 0.273253 0.11374
H_ H_ 0.0405227 0.871368 0.239068 0.11374
H_ H_ 0.30948 0.865127 0.231138 0.11374
H_ H_ 0.0254244 0.953516 0.177142 0.11374
H_ H_ 0.290061 0.948971 0.170556 0.11374
H_ H_ 0.0318912 0.994914 0.217572 0.11374
H_ H_ 0.298266 0.990234 0.212264 0.11374
C_ C_ 0.0903741 0.55034 0.230832 0.62841
C_ C_ 0.335043 0.551403 0.236736 0.62841
C_ C_ 0.0824883 0.579685 0.208735 -0.11088
C_ C_ 0.32965 0.580138 0.214967 -0.11088
C_ C_ 0.0452466 0.58951 0.203761 -0.11981
C_ C_ 0.296821 0.598541 0.21654 -0.11981
C_ C_ 0.0357239 0.61424 0.18266 -0.11981
C_ C_ 0.289332 0.6259 0.196458 -0.11981
C_ C_ 0.0661413 0.632831 0.168169 -0.11088
C_ C_ 0.316269 0.633861 0.173451 -0.11088
C_ C_ 0.104936 0.62737 0.175178 -0.11088
C_ C_ 0.350577 0.618702 0.174167 -0.11088
C_ C_ 0.113951 0.598993 0.193092 -0.11981
C_ C_ 0.357875 0.592578 0.193933 -0.11981
C_ C_ 0.128291 0.649866 0.156927 0.50456
C_ C_ 0.377727 0.637917 0.156865 0.50456
C_ C_ 0.0680732 0.658768 0.147195 0.50456
C_ C_ 0.324895 0.66283 0.155559 0.50456
C_ C_ 0.121465 0.740449 0.0831785 0.19611
C_ C_ 0.379996 0.737417 0.0888644 0.19611
C_ C_ 0.104632 0.72123 0.106762 -0.11981
C_ C_ 0.368036 0.719121 0.11471 -0.11981
C_ C_ 0.118737 0.68877 0.114265 0.26597
C_ C_ 0.375891 0.684228 0.118956 0.26597
C_ C_ 0.146234 0.675003 0.0953372 -0.11981
C_ C_ 0.390981 0.667953 0.0953197 -0.11981
C_ C_ 0.16151 0.694523 0.0726579 0.19611
C_ C_ 0.401069 0.686477 0.0685199 0.19611
C_ C_ 0.219003 0.543318 0.173888 0.62841
C_ C_ 0.470747 0.543857 0.168516 0.62841
C_ C_ 0.242982 0.557262 0.147377 -0.11088
C_ C_ 0.495309 0.557983 0.143456 -0.11088
C_ C_ 0.0222686 0.543768 0.143613 -0.11981
C_ C_ 0.283828 0.550396 0.145856 -0.11981
C_ C_ 0.0476592 0.561788 0.121153 -0.11981
C_ C_ 0.307711 0.569167 0.124646 -0.11981
C_ C_ 0.0334854 0.589512 0.10653 -0.11088
C_ C_ 0.290688 0.588366 0.103266 -0.11088
C_ C_ 0.252837 0.595703 0.103587 -0.11088
C_ C_ 0.507153 0.601712 0.103463 -0.11088
C_ C_ 0.228637 0.58048 0.126181 -0.11981
C_ C_ 0.481303 0.584012 0.124741 -0.11981
C_ C_ 0.0503467 0.611825 0.0848931 0.50456
C_ C_ 0.30961 0.609826 0.0822365 0.50456
C_ C_ 0.25106 0.623835 0.0842054 0.50456
C_ C_ 0.50422 0.629901 0.0846844 0.50456
C_ C_ 0.0580358 0.674258 0.999075 0.19611
C_ C_ 0.315356 0.676618 0.997779 0.19611
C_ C_ 0.0523352 0.649404 0.0223371 -0.11981
C_ C_ 0.307718 0.649 0.0189865 -0.11981
C_ C_ 0.033833 0.65929 0.0493037 0.26597
C_ C_ 0.293509 0.657704 0.0475144 0.26597
C_ C_ 0.0253275 0.693748 0.0532086 -0.11981
C_ C_ 0.285316 0.692796 0.0526264 -0.11981
C_ C_ 0.0321986 0.717263 0.0297386 0.19611
C_ C_ 0.293603 0.718511 0.0303004 0.19611
C_ C_ 0.174151 0.701698 0.483402 0.62841
C_ C_ 0.41638 0.703466 0.483802 0.62841
C_ C_ 0.177646 0.670725 0.462105 -0.11088
C_ C_ 0.422465 0.6714 0.465841 -0.11088
C_ C_ 0.210658 0.652722 0.461618 -0.11981
C_ C_ 0.457542 0.654893 0.467039 -0.11981
C_ C_ 0.21524 0.624988 0.442192 -0.11981
C_ C_ 0.463127 0.624961 0.449309 -0.11981
C_ C_ 0.187127 0.617602 0.420821 -0.11088
C_ C_ 0.430605 0.611056 0.431218 -0.11088
C_ C_ 0.15502 0.635007 0.420908 -0.11088
C_ C_ 0.396993 0.625064 0.432056 -0.11088
C_ C_ 0.149246 0.662666 0.440512 -0.11981
C_ C_ 0.39292 0.657453 0.446066 -0.11981
C_ C_ 0.129728 0.620087 0.399516 0.50456
C_ C_ 0.374611 0.609675 0.409066 0.50456
C_ C_ 0.180145 0.591168 0.401535 0.50456
C_ C_ 0.429662 0.587792 0.407682 0.50456
C_ C_ 0.129089 0.519508 0.332622 0.19611
C_ C_ 0.37351 0.51293 0.337657 0.19611
C_ C_ 0.143269 0.538649 0.358324 -0.11981
C_ C_ 0.390088 0.531871 0.362864 -0.11981
C_ C_ 0.1292 0.570793 0.363622 0.26597
C_ C_ 0.381805 0.566598 0.368354 0.26597
C_ C_ 0.102577 0.583725 0.342367 -0.11981
C_ C_ 0.358593 0.581617 0.346587 -0.11981
C_ C_ 0.0888774 0.562608 0.318982 0.19611
C_ C_ 0.346225 0.563006 0.318965 0.19611
C_ C_ 0.0316763 0.708828 0.41854 0.62841
C_ C_ 0.288532 0.711371 0.422217 0.62841
C_ C_ 1.00596679 0.696326 0.392224 -0.11088
C_ C_ 0.262654 0.69432 0.397013 -0.11088
C_ C_ 0.225691 0.707062 0.390652 -0.11981
C_ C_ 0.462486 0.705005 0.38952 -0.11981
C_ C_ 0.20062 0.690354 0.369065 -0.11981
C_ C_ 0.440118 0.688911 0.366163 -0.11981
C_ C_ 0.210037 0.659328 0.355078 -0.11088
C_ C_ 0.456374 0.664697 0.348645 -0.11088
C_ C_ 0.999168 0.666281 0.345008 -0.11088
C_ C_ 0.247225 0.647856 0.360542 -0.11088
C_ C_ 0.0212903 0.677791 0.369168 -0.11981
C_ C_ 0.274433 0.665993 0.380703 -0.11981
C_ C_ 0.19793 0.642106 0.329099 0.50456
C_ C_ 0.439024 0.641607 0.3266 0.50456
C_ C_ 1.00442118 0.639153 0.326424 0.50456
C_ C_ 0.251318 0.62139 0.338986 0.50456
C_ C_ 0.199055 0.578628 0.244436 0.19611
C_ C_ 0.44568 0.578863 0.24309 0.19611
C_ C_ 0.210217 0.60341 0.266473 -0.11981
C_ C_ 0.454102 0.603092 0.266804 -0.11981
C_ C_ 0.214907 0.592756 0.296855 0.26597
C_ C_ 0.456144 0.590916 0.295477 0.26597
C_ C_ 0.214691 0.55737 0.302408 -0.11981
C_ C_ 0.461205 0.555229 0.300154 -0.11981
C_ C_ 0.205303 0.533739 0.279606 0.19611
C_ C_ 0.460486 0.532264 0.275452 0.19611
C_ C_ 0.172854 0.947116 0.265152 0.62841
C_ C_ 0.426686 0.950301 0.263913 0.62841
C_ C_ 0.175262 0.916371 0.285452 -0.11088
C_ C_ 0.432144 0.922107 0.288153 -0.11088
C_ C_ 0.210364 0.900381 0.288426 -0.11981
C_ C_ 0.466327 0.904633 0.288774 -0.11981
C_ C_ 0.214485 0.873261 0.307695 -0.11981
C_ C_ 0.471183 0.878898 0.31107 -0.11981
C_ C_ 0.180855 0.856308 0.320028 -0.11088
C_ C_ 0.440465 0.86884 0.329401 -0.11088
C_ C_ 0.14583 0.87103 0.317516 -0.11088
C_ C_ 0.408039 0.88599 0.330135 -0.11088
C_ C_ 0.142881 0.902341 0.303699 -0.11981
C_ C_ 0.403549 0.914266 0.311201 -0.11981
C_ C_ 0.125316 0.857075 0.342845 0.50456
C_ C_ 0.379584 0.867213 0.347807 0.50456
C_ C_ 0.178169 0.834282 0.344733 0.50456
C_ C_ 0.433283 0.84069 0.350112 0.50456
C_ C_ 0.126073 0.755798 0.410294 0.19611
C_ C_ 0.377132 0.765833 0.414011 0.19611
C_ C_ 0.137587 0.777574 0.385465 -0.11981
C_ C_ 0.391974 0.786083 0.390861 -0.11981
C_ C_ 0.129188 0.812332 0.383719 0.26597
C_ C_ 0.382415 0.819588 0.38677 0.26597
C_ C_ 0.105467 0.825451 0.405899 -0.11981
C_ C_ 0.35194 0.831367 0.404185 -0.11981
C_ C_ 0.0894382 0.802312 0.428868 0.19611
C_ C_ 0.337658 0.809943 0.427926 0.19611
C_ C_ 0.036979 0.964457 0.333977 0.62841
C_ C_ 0.286451 0.953749 0.324835 0.62841
C_ C_ 0.0108911 0.949373 0.357192 -0.11088
C_ C_ 0.259594 0.94052 0.35027 -0.11088
C_ C_ 0.219646 0.943738 0.350491 -0.11981
C_ C_ 0.475075 0.957844 0.357945 -0.11981
C_ C_ 0.19477 0.928521 0.373798 -0.11981
C_ C_ 0.451161 0.936971 0.377109 -0.11981
C_ C_ 0.211334 0.912618 0.39797 -0.11088
C_ C_ 0.465302 0.911749 0.395319 -0.11088
C_ C_ 1.000131163 0.908303 0.39933 -0.11088
C_ C_ 0.248839 0.906299 0.396181 -0.11088
C_ C_ 0.0238405 0.92247 0.375585 -0.11981
C_ C_ 0.274366 0.920026 0.374302 -0.11981
C_ C_ 0.1926 0.889144 0.419146 0.50456
C_ C_ 0.449014 0.887924 0.416325 0.50456
C_ C_ 1.00218791 0.876908 0.414295 0.50456
C_ C_ 0.254281 0.881923 0.419266 0.50456
C_ C_ 0.201599 0.827262 0.505511 0.19611
C_ C_ 0.450425 0.831268 0.506436 0.19611
C_ C_ 0.205372 0.852123 0.483356 -0.11981
C_ C_ 0.459372 0.857394 0.483748 -0.11981
C_ C_ 0.213023 0.84405 0.454228 0.26597
C_ C_ 0.467256 0.845252 0.453798 0.26597
C_ C_ 0.209312 0.808894 0.447504 -0.11981
C_ C_ 0.467189 0.808758 0.450342 -0.11981
C_ C_ 0.20268 0.783047 0.469005 0.19611
C_ C_ 0.455434 0.785088 0.472657 0.19611
C_ C_ 0.0853427 0.802405 0.011071 0.62841
C_ C_ 0.332081 0.803125 0.00796561 0.62841
C_ C_ 0.0823907 0.834315 0.0311316 -0.11088
C_ C_ 0.325256 0.82947 0.0317236 -0.11088
C_ C_ 0.0479334 0.848346 0.0350967 -0.11981
C_ C_ 0.290654 0.848487 0.0302892 -0.11981
C_ C_ 0.0412238 0.870513 0.0594964 -0.11981
C_ C_ 0.284548 0.874795 0.0519023 -0.11981
C_ C_ 0.0708175 0.878569 0.0794424 -0.11088
C_ C_ 0.31212 0.880889 0.0753591 -0.11088
C_ C_ 0.106612 0.869072 0.0737127 -0.11088
C_ C_ 0.345513 0.86461 0.0741411 -0.11088
C_ C_ 0.11425 0.845639 0.0500367 -0.11981
C_ C_ 0.353442 0.839438 0.0532441 -0.11981
C_ C_ 0.131904 0.889499 0.092216 0.50456
C_ C_ 0.37072 0.881431 0.0947309 0.50456
C_ C_ 0.0744876 0.903561 0.100386 0.50456
C_ C_ 0.317763 0.909573 0.0953518 0.50456
C_ C_ 0.135153 0.98474 0.163595 0.19611
C_ C_ 0.384324 0.985105 0.159782 0.19611
C_ C_ 0.117751 0.963571 0.14114 -0.11981
C_ C_ 0.368879 0.966092 0.135659 -0.11981
C_ C_ 0.125762 0.92841 0.136847 0.26597
C_ C_ 0.370747 0.929637 0.13317 0.26597
C_ C_ 0.152482 0.915547 0.156499 -0.11981
C_ C_ 0.390691 0.913592 0.155342 -0.11981
C_ C_ 0.167917 0.935919 0.180586 0.19611
C_ C_ 0.406618 0.934126 0.179689 0.19611
C_ C_ 0.215505 0.789345 0.0771987 0.62841
C_ C_ 0.464297 0.784911 0.0846398 0.62841
C_ C_ 0.242348 0.803351 0.101342 -0.11088
C_ C_ 0.488878 0.797402 0.110071 -0.11088
C_ C_ 0.0253692 0.794454 0.111054 -0.11981
C_ C_ 0.282263 0.798012 0.102116 -0.11981
C_ C_ 0.0490786 0.810406 0.134061 -0.11981
C_ C_ 0.306931 0.809255 0.12554 -0.11981
C_ C_ 0.0342971 0.834189 0.153515 -0.11088
C_ C_ 0.292565 0.830105 0.14636 -0.11088
C_ C_ 0.256303 0.842596 0.142764 -0.11088
C_ C_ 0.501867 0.835033 0.151723 -0.11088
C_ C_ 0.230448 0.828561 0.12197 -0.11981
C_ C_ 0.477661 0.823506 0.128929 -0.11981
C_ C_ 0.0543632 0.859646 0.170115 0.50456
C_ C_ 0.3139 0.85465 0.165034 0.50456
C_ C_ 0.255548 0.871099 0.162802 0.50456
C_ C_ 0.50028 0.864705 0.169467 0.50456
C_ C_ 0.0567868 0.923423 0.256181 0.19611
C_ C_ 0.31902 0.919453 0.249609 0.19611
C_ C_ 0.0488324 0.897714 0.232662 -0.11981
C_ C_ 0.30671 0.893831 0.2277 -0.11981
C_ C_ 0.0372309 0.908229 0.204349 0.26597
C_ C_ 0.29641 0.90339 0.198899 0.26597
C_ C_ 0.0316583 0.942794 0.199695 -0.11981
C_ C_ 0.299646 0.93931 0.192664 -0.11981
C_ C_ 0.0380965 0.967473 0.223039 0.19611
C_ C_ 0.306038 0.963446 0.214534 0.19611
N_ N_ 0.149002 0.726417 0.0664392 -0.35402
N_ N_ 0.399753 0.721536 0.0676046 -0.35402
N_ N_ 0.10463 0.668242 0.14009 -0.27957
N_ N_ 0.361551 0.66566 0.144747 -0.27957
N_ N_ 0.0256227 0.633794 0.0735682 -0.27957
N_ N_ 0.28494 0.631701 0.0702207 -0.27957
N_ N_ 0.0482509 0.707418 0.0026789 -0.35402
N_ N_ 0.31083 0.710597 0.00419013 -0.35402
N_ N_ 0.101579 0.529718 0.315284 -0.35402
N_ N_ 0.351812 0.528689 0.317193 -0.35402
N_ N_ 0.144986 0.592279 0.388091 -0.27957
N_ N_ 0.394773 0.586632 0.393908 -0.27957
N_ N_ 0.222124 0.618132 0.319846 -0.27957
N_ N_ 0.460257 0.614742 0.320692 -0.27957
N_ N_ 0.200323 0.54481 0.250671 -0.35402
N_ N_ 0.450568 0.543858 0.247736 -0.35402
N_ N_ 0.10214 0.769125 0.431142 -0.35402
N_ N_ 0.349972 0.776702 0.432376 -0.35402
N_ N_ 0.144042 0.833721 0.358553 -0.27957
N_ N_ 0.396625 0.839976 0.360662 -0.27957
N_ N_ 0.219545 0.869526 0.431097 -0.27957
N_ N_ 0.475207 0.868047 0.428641 -0.27957
N_ N_ 0.199787 0.792389 0.498154 -0.35402
N_ N_ 0.448135 0.795934 0.500783 -0.35402
N_ N_ 0.162272 0.971283 0.182012 -0.35402
N_ N_ 0.403365 0.968887 0.182552 -0.35402
N_ N_ 0.11215 0.91117 0.109262 -0.27957
N_ N_ 0.353431 0.908564 0.107518 -0.27957
N_ N_ 0.0305764 0.884084 0.179404 -0.27957
N_ N_ 0.290051 0.877804 0.175615 -0.27957
N_ N_ 0.0525713 0.957921 0.250318 -0.35402
N_ N_ 0.314902 0.953413 0.243092 -0.35402
O_ O_ 0.123446 0.535863 0.23115 -0.59275
O_ O_ 0.36646 0.535095 0.235016 -0.59275
O_ O_ 0.0633344 0.53931 0.250771 -0.41573
O_ O_ 0.307245 0.539053 0.255558 -0.41573
O_ O_ 0.036876 0.67128 0.134208 -0.59275
O_ O_ 0.296651 0.676479 0.141091 -0.59275
O_ O_ 0.165183 0.659293 0.161311 -0.59275
O_ O_ 0.415754 0.638595 0.160573 -0.59275
O_ O_ 0.182194 0.547406 0.175478 -0.59275
O_ O_ 0.434979 0.552472 0.170398 -0.59275
O_ O_ 0.231832 0.522854 0.19454 -0.41573
O_ O_ 0.481551 0.523566 0.189318 -0.41573
O_ O_ 0.218904 0.63187 0.0726699 -0.59275
O_ O_ 0.470352 0.636029 0.0736598 -0.59275
O_ O_ 0.0884786 0.617781 0.0822384 -0.59275
O_ O_ 0.34056 0.602111 0.0675077 -0.59275
O_ O_ 0.146028 0.721943 0.481979 -0.59275
O_ O_ 0.388607 0.723808 0.479302 -0.59275
O_ O_ 0.189306 0.711169 0.00518737 -0.41573
O_ O_ 0.438285 0.709803 0.00564114 -0.41573
O_ O_ 0.2074 0.573864 0.389682 -0.59275
O_ O_ 0.459362 0.571483 0.398664 -0.59275
O_ O_ 0.0919478 0.620613 0.401735 -0.59275
O_ O_ 0.336204 0.605585 0.411304 -0.59275
O_ O_ 0.0652441 0.696666 0.421446 -0.59275
O_ O_ 0.325141 0.706566 0.424432 -0.59275
O_ O_ 0.0214678 0.730535 0.440154 -0.41573
O_ O_ 0.274133 0.730187 0.443109 -0.41573
O_ O_ 0.0374833 0.633822 0.31534 -0.59275
O_ O_ 0.284281 0.607922 0.334231 -0.59275
O_ O_ 0.1626 0.642437 0.317427 -0.59275
O_ O_ 0.409422 0.647887 0.309414 -0.59275
O_ O_ 0.143274 0.965592 0.265919 -0.59275
O_ O_ 0.396791 0.968628 0.267242 -0.59275
O_ O_ 0.200978 0.955411 0.244809 -0.41573
O_ O_ 0.45052 0.957681 0.242217 -0.41573
O_ O_ 0.208428 0.822579 0.357516 -0.59275
O_ O_ 0.461497 0.829161 0.367264 -0.59275
O_ O_ 0.0937599 0.869817 0.353262 -0.59275
O_ O_ 0.343482 0.861906 0.338995 -0.59275
O_ O_ 0.0683742 0.95285 0.328683 -0.59275
O_ O_ 0.323602 0.96217 0.330241 -0.59275
O_ O_ 0.0255859 0.984816 0.312139 -0.41573
O_ O_ 0.271608 0.969111 0.301644 -0.41573
O_ O_ 0.0336622 0.871509 0.429908 -0.59275
O_ O_ 0.287318 0.873941 0.430477 -0.59275
O_ O_ 0.16219 0.894665 0.433719 -0.59275
O_ O_ 0.41507 0.890611 0.429136 -0.59275
O_ O_ 0.11466 0.782936 0.0115095 -0.59275
O_ O_ 0.360818 0.783698 0.00981474 -0.59275
O_ O_ 0.0563164 0.782627 0.494271 -0.41573
O_ O_ 0.311703 0.790235 0.498629 -0.41573
O_ O_ 0.0471855 0.926295 0.10337 -0.59275
O_ O_ 0.289032 0.921642 0.109984 -0.59275
O_ O_ 0.168667 0.895859 0.0874979 -0.59275
O_ O_ 0.407391 0.880484 0.0939934 -0.59275
O_ O_ 0.181932 0.799213 0.073718 -0.59275
O_ O_ 0.433236 0.798766 0.0779493 -0.59275
O_ O_ 0.227895 0.76672 0.0578299 -0.41573
O_ O_ 0.473927 0.759687 0.0671708 -0.41573
O_ O_ 0.224352 0.878971 0.175349 -0.59275
O_ O_ 0.467216 0.873738 0.179529 -0.59275
O_ O_ 0.088919 0.858168 0.18047 -0.59275
O_ O_ 0.343319 0.847021 0.181978 -0.59275
Cd Cd 0.18014 0.499723 0.717706 0.98062
Cd Cd 0.430352 0.502578 0.718444 0.98062
Cd Cd 0.063188 0.747145 0.969763 0.98062
Cd Cd 0.313707 0.749786 0.967347 0.98062
Cd Cd 0.0746803 -0.008071999999999968 0.782444 0.98062
Cd Cd 0.323456 0.994231 0.780951 0.98062
Cd Cd 0.183906 0.750066 0.529581 0.98062
Cd Cd 0.433684 0.75497 0.532207 0.98062
H_ H_ 0.0200465 0.597 0.735214 0.11374
H_ H_ 0.261275 0.578685 0.720928 0.11374
H_ H_ 0.255769 0.631735 0.684713 0.11374
H_ H_ 0.511374 0.637744 0.686877 0.11374
H_ H_ 0.128133 0.580284 0.694016 0.11374
H_ H_ 0.382786 0.583385 0.697585 0.11374
H_ H_ 0.125059 0.760514 0.588216 0.11374
H_ H_ 0.364931 0.762416 0.584739 0.11374
H_ H_ 0.0959259 0.72239 0.626364 0.11374
H_ H_ 0.338407 0.727533 0.625759 0.11374
H_ H_ 0.14877 0.636655 0.586924 0.11374
H_ H_ 0.395765 0.641818 0.592963 0.11374
H_ H_ 0.173739 0.673833 0.5479 0.11374
H_ H_ 0.426415 0.678651 0.550998 0.11374
H_ H_ 0.0377331 0.522886 0.659186 0.11374
H_ H_ 0.289693 0.532468 0.660902 0.11374
H_ H_ 0.083136 0.55162 0.616672 0.11374
H_ H_ 0.331452 0.553823 0.620181 0.11374
H_ H_ 0.197117 0.590286 0.626251 0.11374
H_ H_ 0.448051 0.579263 0.620652 0.11374
H_ H_ 0.0655293 0.665445 0.976156 0.11374
H_ H_ 0.320988 0.668617 0.973879 0.11374
H_ H_ 0.0611861 0.614893 0.508487 0.11374
H_ H_ 0.311992 0.62327 0.516659 0.11374
H_ H_ 0.0235791 0.690638 0.571305 0.11374
H_ H_ 0.274733 0.702808 0.573749 0.11374
H_ H_ 0.0404487 0.734539 0.530233 0.11374
H_ H_ 0.292178 0.744271 0.534202 0.11374
H_ H_ 0.22598 0.657353 0.97709 0.11374
H_ H_ 0.474557 0.657235 0.979073 0.11374
H_ H_ 0.990241 0.627118 0.930823 0.11374
H_ H_ 0.23431 0.616667 0.93944 0.11374
H_ H_ 0.109707 0.671005 0.944957 0.11374
H_ H_ 0.366422 0.677562 0.941781 0.11374
H_ H_ 0.138252 0.987193 0.833569 0.11374
H_ H_ 0.382633 0.98253 0.835327 0.11374
H_ H_ 0.141566 0.523083 0.880835 0.11374
H_ H_ 0.399209 0.522538 0.877731 0.11374
H_ H_ 0.0903653 0.610697 0.845297 0.11374
H_ H_ 0.338581 0.605958 0.846441 0.11374
H_ H_ 0.0697299 0.576558 0.801095 0.11374
H_ H_ 0.322837 0.574048 0.801794 0.11374
H_ H_ 0.207035 0.734778 0.899198 0.11374
H_ H_ 0.443087 0.722177 0.906493 0.11374
H_ H_ 0.157472 0.702551 0.864281 0.11374
H_ H_ 0.399875 0.684104 0.870668 0.11374
H_ H_ 0.0410356 0.662543 0.878596 0.11374
H_ H_ 0.281416 0.653829 0.882112 0.11374
H_ H_ 0.18436 0.579292 0.721121 0.11374
H_ H_ 0.438122 0.58095 0.721172 0.11374
H_ H_ 0.1721 0.624628 0.762179 0.11374
H_ H_ 0.438352 0.627906 0.761631 0.11374
H_ H_ 0.204549 0.552518 0.826934 0.11374
H_ H_ 0.460666 0.551264 0.826973 0.11374
H_ H_ 0.207169 0.507946 0.787657 0.11374
H_ H_ 0.451987 0.504841 0.788605 0.11374
H_ H_ 0.221178 0.89357 0.768213 0.11374
H_ H_ 0.486583 0.921189 0.782068 0.11374
H_ H_ 0.995594 0.875519 0.82568 0.11374
H_ H_ 0.23287 0.855146 0.810878 0.11374
H_ H_ 0.114059 0.919185 0.808335 0.11374
H_ H_ 0.361087 0.913865 0.800316 0.11374
H_ H_ 0.125717 0.741746 0.921645 0.11374
H_ H_ 0.378373 0.741423 0.919905 0.11374
H_ H_ 0.154778 0.778179 0.880722 0.11374
H_ H_ 0.400973 0.770589 0.874548 0.11374
H_ H_ 0.0882291 0.859309 0.907865 0.11374
H_ H_ 0.327211 0.851821 0.892966 0.11374
H_ H_ 0.0572155 0.821873 0.948258 0.11374
H_ H_ 0.30573 0.821154 0.938231 0.11374
H_ H_ 0.208073 0.97309 0.839841 0.11374
H_ H_ 0.460138 0.964584 0.842206 0.11374
H_ H_ 0.166411 0.946665 0.878814 0.11374
H_ H_ 0.415413 0.926637 0.876865 0.11374
H_ H_ 0.0500693 0.918015 0.875528 0.11374
H_ H_ 0.301802 0.915225 0.871734 0.11374
H_ H_ 0.20292 0.835298 0.528319 0.11374
H_ H_ 0.451859 0.838651 0.52835 0.11374
H_ H_ 0.196971 0.883766 0.994835 0.11374
H_ H_ 0.45875 0.881355 0.998721 0.11374
H_ H_ 0.218718 0.812955 0.924105 0.11374
H_ H_ 0.465416 0.809132 0.929971 0.11374
H_ H_ 0.18795 0.764949 0.956936 0.11374
H_ H_ 0.45799 0.761093 0.967755 0.11374
H_ H_ 0.0164373 0.824917 0.527802 0.11374
H_ H_ 0.271457 0.826446 0.536274 0.11374
H_ H_ 0.263763 0.878949 0.566319 0.11374
H_ H_ 0.512275 0.879444 0.559072 0.11374
H_ H_ 0.139566 0.830477 0.550546 0.11374
H_ H_ 0.389018 0.834128 0.560173 0.11374
H_ H_ 0.112546 0.502151 0.67233 0.11374
H_ H_ 0.370793 0.513133 0.663439 0.11374
H_ H_ 0.0935435 0.971065 0.621986 0.11374
H_ H_ 0.349468 0.978363 0.628538 0.11374
H_ H_ 0.138747 0.882413 0.658604 0.11374
H_ H_ 0.414495 0.894254 0.65585 0.11374
H_ H_ 0.165234 0.91755 0.700112 0.11374
H_ H_ 0.445074 0.934226 0.694811 0.11374
H_ H_ 0.041163 0.774648 0.591941 0.11374
H_ H_ 0.297355 0.783236 0.58961 0.11374
H_ H_ 0.0845156 0.807587 0.631419 0.11374
H_ H_ 0.336211 0.812521 0.627876 0.11374
H_ H_ 0.197368 0.83428 0.622047 0.11374
H_ H_ 0.45127 0.830496 0.629094 0.11374
H_ H_ 0.0677026 0.911989 0.778695 0.11374
H_ H_ 0.301804 0.911991 0.776674 0.11374
H_ H_ 0.0559285 0.867054 0.739286 0.11374
H_ H_ 0.295479 0.870182 0.735102 0.11374
H_ H_ 0.0302146 0.945295 0.677587 0.11374
H_ H_ 0.292174 0.953404 0.672556 0.11374
H_ H_ 0.0465034 0.989007 0.716114 0.11374
H_ H_ 0.301385 0.994743 0.712952 0.11374
C_ C_ 0.0793705 0.554855 0.740114 0.62841
C_ C_ 0.327915 0.54836 0.734828 0.62841
C_ C_ 0.0769321 0.585042 0.718929 -0.11088
C_ C_ 0.321563 0.576497 0.712236 -0.11088
C_ C_ 0.0449569 0.603652 0.718484 -0.11981
C_ C_ 0.285021 0.590652 0.707648 -0.11981
C_ C_ 0.0400999 0.62689 0.694956 -0.11981
C_ C_ 0.28074 0.618635 0.688045 -0.11981
C_ C_ 0.0696481 0.636839 0.676579 -0.11088
C_ C_ 0.311487 0.628001 0.669203 -0.11088
C_ C_ 0.105392 0.626266 0.682112 -0.11088
C_ C_ 0.346683 0.614834 0.671556 -0.11088
C_ C_ 0.108616 0.597256 0.700642 -0.11981
C_ C_ 0.35337 0.591672 0.694941 -0.11981
C_ C_ 0.125848 0.637509 0.656839 0.50456
C_ C_ 0.373513 0.636309 0.653151 0.50456
C_ C_ 0.0718747 0.6575 0.65117 0.50456
C_ C_ 0.317874 0.656029 0.649438 0.50456
C_ C_ 0.129348 0.733445 0.586753 0.19611
C_ C_ 0.375421 0.737299 0.587769 0.19611
C_ C_ 0.113288 0.710971 0.609404 -0.11981
C_ C_ 0.360368 0.717764 0.611984 -0.11981
C_ C_ 0.120261 0.675696 0.611511 0.26597
C_ C_ 0.367091 0.682948 0.614363 0.26597
C_ C_ 0.14351 0.66442 0.589907 -0.11981
C_ C_ 0.392382 0.669162 0.593004 -0.11981
C_ C_ 0.156423 0.686347 0.565605 0.19611
C_ C_ 0.406413 0.688445 0.568587 0.19611
C_ C_ 0.21135 0.537942 0.667851 0.62841
C_ C_ 0.467923 0.540731 0.6714 0.62841
C_ C_ 0.238404 0.555914 0.645069 -0.11088
C_ C_ 0.494124 0.555 0.645944 -0.11088
C_ C_ 0.0292426 0.545925 0.646438 -0.11981
C_ C_ 0.277075 0.546792 0.643264 -0.11981
C_ C_ 0.0554417 0.562129 0.624025 -0.11981
C_ C_ 0.302204 0.560483 0.6207 -0.11981
C_ C_ 0.0420013 0.587878 0.604725 -0.11088
C_ C_ 0.288675 0.583511 0.599878 -0.11088
C_ C_ 0.252783 0.596597 0.603349 -0.11088
C_ C_ 0.503225 0.588798 0.599775 -0.11088
C_ C_ 0.227014 0.584364 0.625722 -0.11981
C_ C_ 0.479109 0.575586 0.622522 -0.11981
C_ C_ 0.0573434 0.602002 0.578534 0.50456
C_ C_ 0.311462 0.609 0.583359 0.50456
C_ C_ 0.25334 0.625204 0.585229 0.50456
C_ C_ 0.498601 0.617594 0.580006 0.50456
C_ C_ 0.0586232 0.666345 0.492328 0.19611
C_ C_ 0.314144 0.674114 0.498041 0.19611
C_ C_ 0.0554999 0.640172 0.514696 -0.11981
C_ C_ 0.310326 0.649303 0.522078 -0.11981
C_ C_ 0.0411264 0.648089 0.543318 0.26597
C_ C_ 0.29591 0.658665 0.550257 0.26597
C_ C_ 0.0361153 0.68309 0.549019 -0.11981
C_ C_ 0.290076 0.694427 0.554392 -0.11981
C_ C_ 0.0429724 0.708195 0.526573 0.19611
C_ C_ 0.296379 0.717944 0.530422 0.19611
C_ C_ 0.160806 0.699095 0.988052 0.62841
C_ C_ 0.416109 0.701663 0.982622 0.62841
C_ C_ 0.167992 0.671784 0.965532 -0.11088
C_ C_ 0.422639 0.672717 0.961181 -0.11088
C_ C_ 0.203785 0.655726 0.961682 -0.11981
C_ C_ 0.453759 0.652104 0.962923 -0.11981
C_ C_ 0.208224 0.629377 0.939519 -0.11981
C_ C_ 0.455456 0.621455 0.945126 -0.11981
C_ C_ 0.177439 0.621769 0.919894 -0.11088
C_ C_ 0.423264 0.611259 0.92766 -0.11088
C_ C_ 0.142455 0.636902 0.921166 -0.11088
C_ C_ 0.391849 0.630518 0.926023 -0.11088
C_ C_ 0.137444 0.661062 0.943381 -0.11981
C_ C_ 0.393044 0.663115 0.93866 -0.11981
C_ C_ 0.114748 0.616723 0.904905 0.50456
C_ C_ 0.368931 0.614366 0.904135 0.50456
C_ C_ 0.171473 0.596808 0.896993 0.50456
C_ C_ 0.418779 0.587971 0.904492 0.50456
C_ C_ 0.110421 0.514807 0.839316 0.19611
C_ C_ 0.365521 0.513828 0.83693 0.19611
C_ C_ 0.126492 0.535679 0.863669 -0.11981
C_ C_ 0.379813 0.534049 0.862536 -0.11981
C_ C_ 0.119819 0.570947 0.86486 0.26597
C_ C_ 0.367461 0.565846 0.867523 0.26597
C_ C_ 0.097754 0.584225 0.842925 -0.11981
C_ C_ 0.345197 0.579332 0.845226 -0.11981
C_ C_ 0.0865928 0.564148 0.818073 0.19611
C_ C_ 0.33207 0.560473 0.82023 0.19611
C_ C_ 0.0317356 0.71436 0.920388 0.62841
C_ C_ 0.275995 0.710927 0.919385 0.62841
C_ C_ 0.00678788 0.702124 0.893833 -0.11088
C_ C_ 0.249042 0.697107 0.894383 -0.11088
C_ C_ 0.212816 0.711761 0.888194 -0.11981
C_ C_ 0.456977 0.705835 0.889956 -0.11981
C_ C_ 0.185625 0.693797 0.868589 -0.11981
C_ C_ 0.430589 0.686617 0.86902 -0.11981
C_ C_ 0.197247 0.666082 0.851393 -0.11088
C_ C_ 0.448143 0.662822 0.849177 -0.11088
C_ C_ 0.993452 0.662843 0.85255 -0.11088
C_ C_ 0.231071 0.653147 0.857615 -0.11088
C_ C_ 0.0183484 0.676751 0.873785 -0.11981
C_ C_ 0.256284 0.667074 0.878626 -0.11981
C_ C_ 0.181686 0.647894 0.826255 0.50456
C_ C_ 0.43264 0.637437 0.828946 0.50456
C_ C_ 0.994246 0.632663 0.835769 0.50456
C_ C_ 0.234235 0.6257 0.837918 0.50456
C_ C_ 0.184602 0.572533 0.745021 0.19611
C_ C_ 0.440948 0.574281 0.744661 0.19611
C_ C_ 0.182573 0.599208 0.766714 -0.11981
C_ C_ 0.444384 0.600725 0.766114 -0.11981
C_ C_ 0.194583 0.593512 0.796295 0.26597
C_ C_ 0.455787 0.591818 0.795944 0.26597
C_ C_ 0.198394 0.559016 0.803548 -0.11981
C_ C_ 0.459543 0.557668 0.803922 -0.11981
C_ C_ 0.199234 0.533494 0.781513 0.19611
C_ C_ 0.454762 0.530889 0.781502 0.19611
C_ C_ 0.164438 0.941461 0.763051 0.62841
C_ C_ 0.418972 0.951182 0.76716 0.62841
C_ C_ 0.170553 0.915108 0.787629 -0.11088
C_ C_ 0.423312 0.92001 0.78724 -0.11088
C_ C_ 0.202286 0.893992 0.787586 -0.11981
C_ C_ 0.46023 0.907025 0.791456 -0.11981
C_ C_ 0.208552 0.871176 0.810771 -0.11981
C_ C_ 0.463925 0.880982 0.814443 -0.11981
C_ C_ 0.180316 0.865861 0.833191 -0.11088
C_ C_ 0.430727 0.866658 0.829585 -0.11088
C_ C_ 0.147594 0.88496 0.832698 -0.11088
C_ C_ 0.395628 0.875337 0.821066 -0.11088
C_ C_ 0.142256 0.90873 0.809514 -0.11981
C_ C_ 0.389573 0.902626 0.801866 -0.11981
C_ C_ 0.12286 0.86982 0.854397 0.50456
C_ C_ 0.368789 0.85884 0.840831 0.50456
C_ C_ 0.173505 0.840289 0.855922 0.50456
C_ C_ 0.425821 0.842991 0.852582 0.50456
C_ C_ 0.117087 0.766952 0.918587 0.19611
C_ C_ 0.37059 0.768121 0.91623 0.19611
C_ C_ 0.133846 0.788158 0.896013 -0.11981
C_ C_ 0.384028 0.784705 0.890414 -0.11981
C_ C_ 0.121845 0.821052 0.891195 0.26597
C_ C_ 0.370283 0.816511 0.881735 0.26597
C_ C_ 0.0950638 0.832614 0.910799 -0.11981
C_ C_ 0.340841 0.828437 0.899464 -0.11981
C_ C_ 0.0837014 0.813392 0.936302 0.19611
C_ C_ 0.331718 0.813842 0.927931 0.19611
C_ C_ 0.0364002 0.9646 0.832252 0.62841
C_ C_ 0.28505 0.96035 0.82706 0.62841
C_ C_ 0.0073953 0.949696 0.855559 -0.11088
C_ C_ 0.257457 0.944168 0.849353 -0.11088
C_ C_ 0.219708 0.955194 0.854702 -0.11981
C_ C_ 0.471889 0.948802 0.859678 -0.11981
C_ C_ 0.194459 0.939312 0.875993 -0.11981
C_ C_ 0.447025 0.927418 0.877339 -0.11981
C_ C_ 0.208562 0.915992 0.895843 -0.11088
C_ C_ 0.464087 0.907543 0.89823 -0.11088
C_ C_ 0.996981 0.912389 0.900341 -0.11088
C_ C_ 0.246065 0.906363 0.892804 -0.11088
C_ C_ 0.022261 0.926707 0.877424 -0.11981
C_ C_ 0.271862 0.919293 0.870099 -0.11981
C_ C_ 0.191568 0.897789 0.919563 0.50456
C_ C_ 0.445275 0.889455 0.921874 0.50456
C_ C_ 0.999775 0.886631 0.921222 0.50456
C_ C_ 0.25073 0.882115 0.9153 0.50456
C_ C_ 0.193065 0.829318 1.00469403 0.19611
C_ C_ 0.44695 0.82865 0.0120198 0.19611
C_ C_ 0.198255 0.857901 0.985522 -0.11981
C_ C_ 0.456207 0.854636 0.990657 -0.11981
C_ C_ 0.208397 0.852475 0.955483 0.26597
C_ C_ 0.460066 0.848356 0.961114 0.26597
C_ C_ 0.207463 0.817818 0.946611 -0.11981
C_ C_ 0.460901 0.813829 0.953314 -0.11981
C_ C_ 0.192063 0.790624 0.964631 0.19611
C_ C_ 0.454469 0.78743 0.974927 0.19611
C_ C_ 0.0849644 0.793539 0.51292 0.62841
C_ C_ 0.340447 0.801661 0.517502 0.62841
C_ C_ 0.0786757 0.823096 0.534822 -0.11088
C_ C_ 0.335541 0.832748 0.537213 -0.11088
C_ C_ 0.0415316 0.83637 0.538114 -0.11981
C_ C_ 0.29739 0.84421 0.542452 -0.11981
C_ C_ 0.0360485 0.862376 0.560605 -0.11981
C_ C_ 0.29175 0.870692 0.562351 -0.11981
C_ C_ 0.0685645 0.880574 0.572812 -0.11088
C_ C_ 0.32426 0.887628 0.576076 -0.11088
C_ C_ 0.103217 0.865361 0.572495 -0.11088
C_ C_ 0.361093 0.878419 0.569881 -0.11088
C_ C_ 0.109714 0.83895 0.552802 -0.11981
C_ C_ 0.365768 0.847807 0.55533 -0.11981
C_ C_ 0.126063 0.88104 0.595464 0.50456
C_ C_ 0.382376 0.890737 0.594022 0.50456
C_ C_ 0.0713974 0.904764 0.595697 0.50456
C_ C_ 0.327372 0.908387 0.601944 0.50456
C_ C_ 0.128337 0.980617 0.661843 0.19611
C_ C_ 0.384469 0.987719 0.666207 0.19611
C_ C_ 0.113729 0.962047 0.637107 -0.11981
C_ C_ 0.368851 0.966645 0.642253 -0.11981
C_ C_ 0.118979 0.926833 0.635963 0.26597
C_ C_ 0.37968 0.931786 0.637439 0.26597
C_ C_ 0.13712 0.910511 0.659086 -0.11981
C_ C_ 0.407244 0.92032 0.658284 -0.11981
C_ C_ 0.151519 0.930516 0.682812 0.19611
C_ C_ 0.42418 0.942245 0.679777 0.19611
C_ C_ 0.21805 0.786653 0.575528 0.62841
C_ C_ 0.46978 0.790047 0.578566 0.62841
C_ C_ 0.241694 0.804402 0.600397 -0.11088
C_ C_ 0.495165 0.805325 0.603258 -0.11088
C_ C_ 0.0301485 0.796115 0.606649 -0.11981
C_ C_ 0.2828 0.799339 0.604862 -0.11981
C_ C_ 0.0567246 0.814401 0.626755 -0.11981
C_ C_ 0.306595 0.817533 0.625746 -0.11981
C_ C_ 0.0409071 0.832619 0.649365 -0.11088
C_ C_ 0.290433 0.837714 0.646846 -0.11088
C_ C_ 0.251859 0.846554 0.643108 -0.11088
C_ C_ 0.50796 0.844505 0.64559 -0.11088
C_ C_ 0.227495 0.830468 0.621084 -0.11981
C_ C_ 0.482111 0.828162 0.626139 -0.11981
C_ C_ 0.0609246 0.855097 0.669352 0.50456
C_ C_ 0.307225 0.863645 0.664697 0.50456
C_ C_ 0.248577 0.876397 0.660787 0.50456
C_ C_ 0.505499 0.871333 0.666627 0.50456
C_ C_ 0.0591747 0.918784 0.756228 0.19611
C_ C_ 0.30028 0.921179 0.753152 0.19611
C_ C_ 0.0556802 0.893667 0.733152 -0.11981
C_ C_ 0.296259 0.896898 0.729925 -0.11981
C_ C_ 0.0425934 0.902081 0.703883 0.26597
C_ C_ 0.288649 0.90775 0.700867 0.26597
C_ C_ 0.0344943 0.936478 0.699331 -0.11981
C_ C_ 0.291619 0.94314 0.695554 -0.11981
C_ C_ 0.0425418 0.960917 0.722032 0.19611
C_ C_ 0.301546 0.967129 0.718248 0.19611
N_ N_ 0.150764 0.720868 0.564415 -0.35402
N_ N_ 0.398164 0.722504 0.566206 -0.35402
N_ N_ 0.104988 0.653477 0.636297 -0.27957
N_ N_ 0.354802 0.661436 0.640547 -0.27957
N_ N_ 0.0319223 0.620454 0.565176 -0.27957
N_ N_ 0.288716 0.632893 0.573882 -0.27957
N_ N_ 0.0538918 0.699434 0.497982 -0.35402
N_ N_ 0.311057 0.708036 0.503465 -0.35402
N_ N_ 0.0944537 0.530436 0.814792 -0.35402
N_ N_ 0.341637 0.527321 0.816548 -0.35402
N_ N_ 0.13335 0.591315 0.890581 -0.27957
N_ N_ 0.383237 0.586927 0.892123 -0.27957
N_ N_ 0.203081 0.621363 0.818699 -0.27957
N_ N_ 0.460897 0.618603 0.817723 -0.27957
N_ N_ 0.191674 0.540109 0.752042 -0.35402
N_ N_ 0.442575 0.540425 0.752913 -0.35402
N_ N_ 0.0923397 0.781037 0.938598 -0.35402
N_ N_ 0.344159 0.781998 0.934541 -0.35402
N_ N_ 0.139352 0.843568 0.868348 -0.27957
N_ N_ 0.38769 0.835372 0.857003 -0.27957
N_ N_ 0.218614 0.880111 0.933821 -0.27957
N_ N_ 0.470461 0.877721 0.941062 -0.27957
N_ N_ 0.190223 0.796432 0.995016 -0.35402
N_ N_ 0.448389 0.795028 0.00347045 -0.35402
N_ N_ 0.148164 0.965605 0.684069 -0.35402
N_ N_ 0.409775 0.973916 0.685534 -0.35402
N_ N_ 0.106612 0.90487 0.610171 -0.27957
N_ N_ 0.36269 0.910299 0.613754 -0.27957
N_ N_ 0.0357018 0.876302 0.6806 -0.27957
N_ N_ 0.281563 0.883128 0.676692 -0.27957
N_ N_ 0.0552983 0.951962 0.749585 -0.35402
N_ N_ 0.306669 0.956811 0.746983 -0.35402
O_ O_ 0.109936 0.535962 0.737974 -0.59275
O_ O_ 0.359462 0.534112 0.735675 -0.59275
O_ O_ 0.0494652 0.542056 0.757843 -0.41573
O_ O_ 0.299158 0.53406 0.751567 -0.41573
O_ O_ 0.0417472 0.666675 0.637989 -0.59275
O_ O_ 0.290553 0.671574 0.636423 -0.59275
O_ O_ 0.163203 0.636595 0.654451 -0.59275
O_ O_ 0.410545 0.642901 0.660676 -0.59275
O_ O_ 0.174651 0.544972 0.667748 -0.59275
O_ O_ 0.432353 0.549034 0.671774 -0.59275
O_ O_ 0.221766 0.516738 0.689375 -0.41573
O_ O_ 0.476501 0.519284 0.692018 -0.41573
O_ O_ 0.22452 0.642792 0.579536 -0.59275
O_ O_ 0.465954 0.62668 0.568414 -0.59275
O_ O_ 0.0908934 0.596803 0.565518 -0.59275
O_ O_ 0.345606 0.604548 0.57287 -0.59275
O_ O_ 0.131623 0.718686 0.98457 -0.59275
O_ O_ 0.390368 0.723971 0.976577 -0.59275
O_ O_ 0.200695 0.709608 0.504477 -0.41573
O_ O_ 0.440067 0.711106 0.507143 -0.41573
O_ O_ 0.19672 0.575083 0.890276 -0.59275
O_ O_ 0.443589 0.565405 0.897487 -0.59275
O_ O_ 0.0792187 0.611528 0.913968 -0.59275
O_ O_ 0.331328 0.617572 0.902529 -0.59275
O_ O_ 0.0642096 0.700815 0.926198 -0.59275
O_ O_ 0.311309 0.7022 0.918818 -0.59275
O_ O_ 0.0186556 0.735072 0.940585 -0.41573
O_ O_ 0.266652 0.733863 0.939715 -0.41573
O_ O_ 0.0273487 0.623828 0.825153 -0.59275
O_ O_ 0.265529 0.610109 0.833682 -0.59275
O_ O_ 0.145839 0.647793 0.816287 -0.59275
O_ O_ 0.397035 0.636932 0.817469 -0.59275
O_ O_ 0.137744 0.962793 0.76843 -0.59275
O_ O_ 0.388063 0.968716 0.770486 -0.59275
O_ O_ 0.19391 0.954356 0.745518 -0.41573
O_ O_ 0.44588 0.962566 0.747411 -0.41573
O_ O_ 0.20184 0.828222 0.870553 -0.59275
O_ O_ 0.451398 0.824727 0.863986 -0.59275
O_ O_ 0.0843306 0.866995 0.84964 -0.59275
O_ O_ 0.332571 0.851408 0.832856 -0.59275
O_ O_ 0.0712313 0.953882 0.830912 -0.59275
O_ O_ 0.320269 0.951806 0.825174 -0.59275
O_ O_ 0.0271781 0.984968 0.81079 -0.41573
O_ O_ 0.276043 0.984459 0.808658 -0.41573
O_ O_ 0.0315698 0.883073 0.935394 -0.59275
O_ O_ 0.283296 0.874762 0.925686 -0.59275
O_ O_ 0.157877 0.903337 0.932053 -0.59275
O_ O_ 0.409029 0.892737 0.930022 -0.59275
O_ O_ 0.114286 0.77545 0.517127 -0.59275
O_ O_ 0.368606 0.781178 0.522582 -0.59275
O_ O_ 0.0554932 0.788876 0.99512 -0.41573
O_ O_ 0.303062 0.790324 0.991782 -0.41573
O_ O_ 0.0407655 0.914603 0.609447 -0.59275
O_ O_ 0.298278 0.920005 0.616407 -0.59275
O_ O_ 0.163946 0.884644 0.59523 -0.59275
O_ O_ 0.419098 0.888281 0.596087 -0.59275
O_ O_ 0.184402 0.79649 0.569822 -0.59275
O_ O_ 0.432984 0.793757 0.577164 -0.59275
O_ O_ 0.229178 0.7644 0.556645 -0.41573
O_ O_ 0.481768 0.771798 0.556075 -0.41573
O_ O_ 0.214253 0.884194 0.67043 -0.59275
O_ O_ 0.471419 0.8777 0.678791 -0.59275
O_ O_ 0.0867738 0.842324 0.687197 -0.59275
O_ O_ 0.342833 0.864283 0.673845 -0.59275
Cd Cd 0.689915 0.997937 0.218561 0.98062
Cd Cd 0.929344 -0.00037600000000004297 0.21815 0.98062
Cd Cd 0.558298 0.246799 0.470627 0.98062
Cd Cd 0.818029 0.247504 0.469587 0.98062
Cd Cd 0.571071 0.501966 0.278576 0.98062
Cd Cd 0.818867 0.497903 0.283591 0.98062
Cd Cd 0.684292 0.251751 0.0333268 0.98062
Cd Cd 0.929277 0.25485 0.0309391 0.98062
H_ H_ 0.529488 0.0941425 0.236179 0.11374
H_ H_ 0.766028 0.0895649 0.230093 0.11374
H_ H_ 0.759992 0.13891 0.192213 0.11374
H_ H_ 1.00400379 0.129609 0.185001 0.11374
H_ H_ 0.630085 0.0668606 0.187062 0.11374
H_ H_ 0.880803 0.0839418 0.199099 0.11374
H_ H_ 0.62975 0.257925 0.0879857 0.11374
H_ H_ 0.864572 0.262828 0.0822642 0.11374
H_ H_ 0.615565 0.223594 0.13637 0.11374
H_ H_ 0.844103 0.231804 0.127491 0.11374
H_ H_ 0.648616 0.13342 0.0907118 0.11374
H_ H_ 0.902965 0.144501 0.0967663 0.11374
H_ H_ 0.662023 0.16851 0.0449945 0.11374
H_ H_ 0.931169 0.180407 0.0566172 0.11374
H_ H_ 0.546284 0.0217479 0.160078 0.11374
H_ H_ 0.802281 0.0250898 0.160156 0.11374
H_ H_ 0.587007 0.0425554 0.114068 0.11374
H_ H_ 0.840721 0.0564256 0.116129 0.11374
H_ H_ 0.705973 0.0905435 0.135051 0.11374
H_ H_ 0.955335 0.0898169 0.133811 0.11374
H_ H_ 0.564279 0.166292 0.473121 0.11374
H_ H_ 0.81626 0.166742 0.472114 0.11374
H_ H_ 0.550063 0.118115 0.016267 0.11374
H_ H_ 0.807242 0.117153 0.0126506 0.11374
H_ H_ 0.535972 0.195726 0.0814341 0.11374
H_ H_ 0.779812 0.197245 0.0747525 0.11374
H_ H_ 0.555258 0.241478 0.0453095 0.11374
H_ H_ 0.798748 0.241805 0.0381057 0.11374
H_ H_ 0.733294 0.149536 0.483469 0.11374
H_ H_ 0.984633 0.163522 0.471489 0.11374
H_ H_ 0.494318 0.110694 0.437808 0.11374
H_ H_ 0.744632 0.115413 0.437007 0.11374
H_ H_ 0.618475 0.162973 0.45293 0.11374
H_ H_ 0.864325 0.168875 0.447135 0.11374
H_ H_ 0.634405 0.495719 0.326771 0.11374
H_ H_ 0.882853 0.489282 0.331128 0.11374
H_ H_ 0.651311 0.0217413 0.377372 0.11374
H_ H_ 0.919094 0.0349123 0.360911 0.11374
H_ H_ 0.595634 0.109477 0.347175 0.11374
H_ H_ 0.825057 0.0991797 0.354471 0.11374
H_ H_ 0.570304 0.0756349 0.302562 0.11374
H_ H_ 0.801084 0.0656409 0.309475 0.11374
H_ H_ 0.703499 0.213115 0.414335 0.11374
H_ H_ 0.961486 0.225446 0.399929 0.11374
H_ H_ 0.660989 0.18529 0.374221 0.11374
H_ H_ 0.914885 0.188505 0.365903 0.11374
H_ H_ 0.541204 0.158784 0.384442 0.11374
H_ H_ 0.804202 0.168656 0.373131 0.11374
H_ H_ 0.672649 0.078576 0.226352 0.11374
H_ H_ 0.93146 0.0774714 0.223307 0.11374
H_ H_ 0.683623 0.125821 0.262699 0.11374
H_ H_ 0.946495 0.12446 0.260272 0.11374
H_ H_ 0.731851 0.0569339 0.321959 0.11374
H_ H_ 0.972202 0.0516607 0.324987 0.11374
H_ H_ 0.721031 0.0105129 0.285529 0.11374
H_ H_ 0.955136 0.00429065 0.288424 0.11374
H_ H_ 0.726858 0.433092 0.283996 0.11374
H_ H_ 0.987453 0.413345 0.272622 0.11374
H_ H_ 0.486206 0.362001 0.302999 0.11374
H_ H_ 0.739692 0.393601 0.32435 0.11374
H_ H_ 0.606231 0.414925 0.298861 0.11374
H_ H_ 0.8683 0.41627 0.30569 0.11374
H_ H_ 0.621013 0.239374 0.418893 0.11374
H_ H_ 0.892374 0.241714 0.421763 0.11374
H_ H_ 0.641898 0.272782 0.371692 0.11374
H_ H_ 0.924105 0.281427 0.384552 0.11374
H_ H_ 0.5987 0.362981 0.415825 0.11374
H_ H_ 0.837612 0.353354 0.401542 0.11374
H_ H_ 0.55675 0.32135 0.446452 0.11374
H_ H_ 0.810743 0.314931 0.441881 0.11374
H_ H_ 0.716243 0.483343 0.352581 0.11374
H_ H_ 0.962278 0.470326 0.337197 0.11374
H_ H_ 0.671856 0.460902 0.39431 0.11374
H_ H_ 0.915153 0.442567 0.376321 0.11374
H_ H_ 0.545893 0.411099 0.368215 0.11374
H_ H_ 0.790449 0.406044 0.368722 0.11374
H_ H_ 0.687249 0.332737 0.0287505 0.11374
H_ H_ 0.92169 0.334313 0.0268049 0.11374
H_ H_ 0.688225 0.380364 0.491583 0.11374
H_ H_ 0.926263 0.374568 0.478781 0.11374
H_ H_ 0.714526 0.30416 0.425453 0.11374
H_ H_ 0.986925 0.306268 0.428266 0.11374
H_ H_ 0.709291 0.260406 0.463618 0.11374
H_ H_ 0.967051 0.260572 0.459676 0.11374
H_ H_ 0.512965 0.334676 0.0324451 0.11374
H_ H_ 0.76446 0.339848 0.0205334 0.11374
H_ H_ 0.756375 0.385145 0.0595615 0.11374
H_ H_ 0.00968115 0.385352 0.0565291 0.11374
H_ H_ 0.633054 0.333256 0.053645 0.11374
H_ H_ 0.879903 0.328479 0.0578759 0.11374
H_ H_ 0.629791 0.00832257 0.166982 0.11374
H_ H_ 0.86779 0.00553756 0.168651 0.11374
H_ H_ 0.595912 0.488223 0.124762 0.11374
H_ H_ 0.837887 0.477011 0.120591 0.11374
H_ H_ 0.663972 0.402365 0.148926 0.11374
H_ H_ 0.899791 0.392489 0.153891 0.11374
H_ H_ 0.690848 0.437596 0.187987 0.11374
H_ H_ 0.91966 0.426726 0.199295 0.11374
H_ H_ 0.55135 0.279182 0.0873323 0.11374
H_ H_ 0.799821 0.286439 0.089875 0.11374
H_ H_ 0.591452 0.306843 0.126492 0.11374
H_ H_ 0.836852 0.30492 0.138491 0.11374
H_ H_ 0.705032 0.345286 0.115997 0.11374
H_ H_ 0.949776 0.342756 0.117167 0.11374
H_ H_ 0.552277 0.42098 0.275518 0.11374
H_ H_ 0.818196 0.412966 0.279619 0.11374
H_ H_ 0.557234 0.374594 0.23627 0.11374
H_ H_ 0.806748 0.36524 0.242322 0.11374
H_ H_ 0.528923 0.447243 0.171008 0.11374
H_ H_ 0.783768 0.446105 0.178697 0.11374
H_ H_ 0.539456 0.49672 0.207326 0.11374
H_ H_ 0.78348 0.487345 0.219306 0.11374
C_ C_ 0.582914 0.0465576 0.235233 0.62841
C_ C_ 0.827625 0.0511037 0.235529 0.62841
C_ C_ 0.580885 0.0763767 0.21547 -0.11088
C_ C_ 0.824937 0.0808578 0.215467 -0.11088
C_ C_ 0.548885 0.096598 0.217496 -0.11981
C_ C_ 0.79033 0.0979459 0.2146 -0.11981
C_ C_ 0.543839 0.121539 0.195318 -0.11981
C_ C_ 0.785905 0.125393 0.194726 -0.11981
C_ C_ 0.571318 0.127417 0.172326 -0.11088
C_ C_ 0.815284 0.135828 0.17595 -0.11088
C_ C_ 0.605018 0.111159 0.172546 -0.11088
C_ C_ 0.849017 0.119888 0.176351 -0.11088
C_ C_ 0.608861 0.0840624 0.192156 -0.11981
C_ C_ 0.854231 0.0932581 0.19645 -0.11981
C_ C_ 0.633588 0.127733 0.153909 0.50456
C_ C_ 0.872994 0.135761 0.1549 0.50456
C_ C_ 0.580671 0.155744 0.152656 0.50456
C_ C_ 0.82018 0.1626 0.155169 0.50456
C_ C_ 0.638711 0.230851 0.0906275 0.19611
C_ C_ 0.873572 0.236985 0.0855097 0.19611
C_ C_ 0.626101 0.210807 0.115868 -0.11981
C_ C_ 0.85929 0.21751 0.111429 -0.11981
C_ C_ 0.631597 0.176455 0.116112 0.26597
C_ C_ 0.870575 0.184175 0.11739 0.26597
C_ C_ 0.646795 0.160949 0.0904231 -0.11981
C_ C_ 0.891708 0.169932 0.0937473 -0.11981
C_ C_ 0.652929 0.180197 0.0647043 0.19611
C_ C_ 0.907988 0.190691 0.0710586 0.19611
C_ C_ 0.725062 0.033955 0.172218 0.62841
C_ C_ 0.967268 0.0380825 0.171423 0.62841
C_ C_ 0.74916 0.0526395 0.148015 -0.11088
C_ C_ 0.994877 0.0529277 0.147346 -0.11088
C_ C_ 0.538477 0.0439471 0.147124 -0.11981
C_ C_ 0.788588 0.0458573 0.144608 -0.11981
C_ C_ 0.55849 0.0525712 0.119517 -0.11981
C_ C_ 0.810676 0.0608884 0.120226 -0.11981
C_ C_ 0.542722 0.0792834 0.101407 -0.11088
C_ C_ 0.794833 0.0862371 0.101963 -0.11088
C_ C_ 0.756892 0.0943856 0.106631 -0.11088
C_ C_ 0.00550093 0.0933706 0.104949 -0.11088
C_ C_ 0.734074 0.0802895 0.129941 -0.11981
C_ C_ 0.981328 0.0786922 0.127867 -0.11981
C_ C_ 0.557803 0.100024 0.0773915 0.50456
C_ C_ 0.811526 0.107808 0.081043 0.50456
C_ C_ 0.749815 0.121448 0.0869607 0.50456
C_ C_ 0.00464899 0.122422 0.0878588 0.50456
C_ C_ 0.553333 0.172069 0.999445151 0.19611
C_ C_ 0.806787 0.17085 0.995802 0.19611
C_ C_ 0.547572 0.145465 0.0215468 -0.11981
C_ C_ 0.801901 0.144149 0.0187373 -0.11981
C_ C_ 0.542416 0.15243 0.051085 0.26597
C_ C_ 0.787448 0.152749 0.0467101 0.26597
C_ C_ 0.540451 0.187625 0.0585429 -0.11981
C_ C_ 0.78275 0.188169 0.0529568 -0.11981
C_ C_ 0.550554 0.213718 0.0371103 0.19611
C_ C_ 0.793519 0.214395 0.0306087 0.19611
C_ C_ 0.674884 0.197028 0.489367 0.62841
C_ C_ 0.924342 0.204519 0.481255 0.62841
C_ C_ 0.679067 0.166948 0.466248 -0.11088
C_ C_ 0.927199 0.174744 0.459133 -0.11088
C_ C_ 0.712163 0.148966 0.46579 -0.11981
C_ C_ 0.962132 0.159999 0.455846 -0.11981
C_ C_ 0.718411 0.128321 0.440329 -0.11981
C_ C_ 0.967414 0.13386 0.432587 -0.11981
C_ C_ 0.685911 0.119065 0.420567 -0.11088
C_ C_ 0.935846 0.124996 0.412558 -0.11088
C_ C_ 0.652157 0.135721 0.422875 -0.11088
C_ C_ 0.899555 0.135402 0.419612 -0.11088
C_ C_ 0.646486 0.153099 0.449825 -0.11981
C_ C_ 0.893604 0.159873 0.443435 -0.11981
C_ C_ 0.624044 0.116394 0.405646 0.50456
C_ C_ 0.872 0.114457 0.403308 0.50456
C_ C_ 0.677652 0.090298 0.403367 0.50456
C_ C_ 0.929203 0.0970807 0.39467 0.50456
C_ C_ 0.62632 0.0188606 0.333584 0.19611
C_ C_ 0.87413 0.0174292 0.330283 0.19611
C_ C_ 0.63428 0.0333307 0.361514 -0.11981
C_ C_ 0.889147 0.0374097 0.354742 -0.11981
C_ C_ 0.623588 0.0678118 0.367214 0.26597
C_ C_ 0.874532 0.0693915 0.363306 0.26597
C_ C_ 0.599057 0.0815038 0.346508 -0.11981
C_ C_ 0.839797 0.0765583 0.34774 -0.11981
C_ C_ 0.587547 0.0624896 0.320715 0.19611
C_ C_ 0.826681 0.0574 0.321713 0.19611
C_ C_ 0.528911 0.213186 0.419716 0.62841
C_ C_ 0.783555 0.21032 0.421475 0.62841
C_ C_ 0.504938 0.199007 0.393123 -0.11088
C_ C_ 0.757492 0.194435 0.396649 -0.11088
C_ C_ 0.717206 0.197707 0.396407 -0.11981
C_ C_ 0.973608 0.207441 0.385731 -0.11981
C_ C_ 0.692974 0.184026 0.372181 -0.11981
C_ C_ 0.946503 0.188466 0.366043 -0.11981
C_ C_ 0.709349 0.166471 0.348136 -0.11088
C_ C_ 0.961227 0.167044 0.345723 -0.11088
C_ C_ 0.494422 0.156858 0.352906 -0.11088
C_ C_ 0.748641 0.161592 0.349519 -0.11088
C_ C_ 0.515766 0.168842 0.377804 -0.11981
C_ C_ 0.773132 0.174532 0.373264 -0.11981
C_ C_ 0.692162 0.145153 0.326304 0.50456
C_ C_ 0.942374 0.142661 0.325445 0.50456
C_ C_ 0.495661 0.125444 0.337298 0.50456
C_ C_ 0.752901 0.134188 0.329028 0.50456
C_ C_ 0.688284 0.0731577 0.245849 0.19611
C_ C_ 0.937791 0.0717619 0.246534 0.19611
C_ C_ 0.693407 0.101242 0.266618 -0.11981
C_ C_ 0.946682 0.0991812 0.266943 -0.11981
C_ C_ 0.711216 0.0969318 0.295109 0.26597
C_ C_ 0.957511 0.0911376 0.295573 0.26597
C_ C_ 0.722375 0.062549 0.300565 -0.11981
C_ C_ 0.959273 0.0561088 0.302966 -0.11981
C_ C_ 0.714589 0.0351458 0.279699 0.19611
C_ C_ 0.952999 0.0303074 0.28216 0.19611
C_ C_ 0.657428 0.455297 0.264915 0.62841
C_ C_ 0.9194 0.446614 0.266057 0.62841
C_ C_ 0.663655 0.427004 0.287706 -0.11088
C_ C_ 0.926834 0.41893 0.287072 -0.11088
C_ C_ 0.701449 0.418895 0.294621 -0.11981
C_ C_ 0.962093 0.404092 0.288002 -0.11981
C_ C_ 0.709296 0.396032 0.318585 -0.11981
C_ C_ 0.967767 0.377659 0.3091 -0.11981
C_ C_ 0.67858 0.381225 0.335211 -0.11088
C_ C_ 0.937933 0.366863 0.328984 -0.11088
C_ C_ 0.642117 0.390528 0.329788 -0.11088
C_ C_ 0.902502 0.380395 0.327015 -0.11088
C_ C_ 0.634682 0.408451 0.303483 -0.11981
C_ C_ 0.896545 0.407397 0.307783 -0.11981
C_ C_ 0.618446 0.367707 0.347455 0.50456
C_ C_ 0.880298 0.365533 0.349564 0.50456
C_ C_ 0.674502 0.354288 0.357546 0.50456
C_ C_ 0.933512 0.341731 0.351811 0.50456
C_ C_ 0.613701 0.266847 0.415161 0.19611
C_ C_ 0.882829 0.26825 0.419524 0.19611
C_ C_ 0.628236 0.286663 0.390077 -0.11981
C_ C_ 0.900344 0.290656 0.397501 -0.11981
C_ C_ 0.621121 0.322173 0.388679 0.26597
C_ C_ 0.883878 0.322269 0.390955 0.26597
C_ C_ 0.598129 0.335323 0.410344 -0.11981
C_ C_ 0.851751 0.329832 0.407218 -0.11981
C_ C_ 0.58104 0.313109 0.43256 0.19611
C_ C_ 0.835797 0.306885 0.429999 0.19611
C_ C_ 0.536716 0.467297 0.329812 0.62841
C_ C_ 0.786877 0.464912 0.335348 0.62841
C_ C_ 0.507915 0.448012 0.351402 -0.11088
C_ C_ 0.76304 0.452605 0.361749 -0.11088
C_ C_ 0.727052 0.464625 0.367131 -0.11981
C_ C_ 0.972963 0.454278 0.353653 -0.11981
C_ C_ 0.699591 0.451244 0.389604 -0.11981
C_ C_ 0.947081 0.439005 0.375759 -0.11981
C_ C_ 0.709634 0.42256 0.406733 -0.11088
C_ C_ 0.962802 0.418242 0.397365 -0.11088
C_ C_ 0.496162 0.414148 0.395425 -0.11088
C_ C_ 0.744722 0.408073 0.401707 -0.11088
C_ C_ 0.52053 0.426013 0.37131 -0.11981
C_ C_ 0.769911 0.42177 0.377867 -0.11981
C_ C_ 0.689898 0.400685 0.428635 0.50456
C_ C_ 0.945258 0.39612 0.420011 0.50456
C_ C_ 0.498467 0.384184 0.412812 0.50456
C_ C_ 0.741356 0.375473 0.418096 0.50456
C_ C_ 0.68422 0.325378 0.505028 0.19611
C_ C_ 0.938765 0.326874 0.49967 0.19611
C_ C_ 0.688668 0.353166 0.484662 -0.11981
C_ C_ 0.943781 0.352937 0.477457 -0.11981
C_ C_ 0.697026 0.344811 0.454439 0.26597
C_ C_ 0.966851 0.347456 0.452784 0.26597
C_ C_ 0.704195 0.310464 0.446385 -0.11981
C_ C_ 0.973639 0.313078 0.447713 -0.11981
C_ C_ 0.702891 0.285555 0.469371 0.19611
C_ C_ 0.961481 0.286493 0.467227 0.19611
C_ C_ 0.577334 0.298603 0.0192339 0.62841
C_ C_ 0.827685 0.299657 0.0157227 0.62841
C_ C_ 0.574065 0.331108 0.0375255 -0.11088
C_ C_ 0.823186 0.329249 0.034968 -0.11088
C_ C_ 0.539697 0.345804 0.0419267 -0.11981
C_ C_ 0.787736 0.345778 0.0364519 -0.11981
C_ C_ 0.53743 0.376226 0.0601105 -0.11981
C_ C_ 0.782018 0.372132 0.0582954 -0.11981
C_ C_ 0.570058 0.391638 0.0747889 -0.11088
C_ C_ 0.808681 0.376275 0.0818503 -0.11088
C_ C_ 0.603818 0.37657 0.072397 -0.11088
C_ C_ 0.843671 0.361555 0.0805741 -0.11088
C_ C_ 0.606334 0.345031 0.0559404 -0.11981
C_ C_ 0.851127 0.3374 0.0585593 -0.11981
C_ C_ 0.630194 0.393605 0.0921478 0.50456
C_ C_ 0.868952 0.381365 0.0975459 0.50456
C_ C_ 0.575693 0.418022 0.0956725 0.50456
C_ C_ 0.815254 0.404611 0.101068 0.50456
C_ C_ 0.629227 0.490935 0.16449 0.19611
C_ C_ 0.869347 0.484165 0.164292 0.19611
C_ C_ 0.614789 0.473756 0.138906 -0.11981
C_ C_ 0.856881 0.464746 0.137593 -0.11981
C_ C_ 0.626298 0.440157 0.131369 0.26597
C_ C_ 0.868904 0.431714 0.133296 0.26597
C_ C_ 0.651282 0.426244 0.152591 -0.11981
C_ C_ 0.892143 0.418388 0.156194 -0.11981
C_ C_ 0.665848 0.444358 0.177325 0.19611
C_ C_ 0.901577 0.437912 0.181889 0.19611
C_ C_ 0.71973 0.290415 0.08001 0.62841
C_ C_ 0.963274 0.285968 0.0805948 0.62841
C_ C_ 0.745579 0.307451 0.104566 -0.11088
C_ C_ 0.990635 0.304795 0.102038 -0.11088
C_ C_ 0.538358 0.297415 0.103542 -0.11981
C_ C_ 0.783746 0.296904 0.110099 -0.11981
C_ C_ 0.561264 0.313794 0.125443 -0.11981
C_ C_ 0.805782 0.307094 0.136235 -0.11981
C_ C_ 0.547326 0.333659 0.148438 -0.11088
C_ C_ 0.787928 0.329095 0.156378 -0.11088
C_ C_ 0.752522 0.342538 0.14945 -0.11088
C_ C_ 0.00621428 0.3527 0.13718 -0.11088
C_ C_ 0.731751 0.33341 0.122008 -0.11981
C_ C_ 0.978986 0.334237 0.118935 -0.11981
C_ C_ 0.564937 0.360824 0.165948 0.50456
C_ C_ 0.805573 0.350238 0.177424 0.50456
C_ C_ 0.750731 0.371629 0.166467 0.50456
C_ C_ 1.00276748 0.381349 0.156771 0.50456
C_ C_ 0.555217 0.428381 0.251387 0.19611
C_ C_ 0.8095 0.419973 0.258947 0.19611
C_ C_ 0.551826 0.401097 0.229912 -0.11981
C_ C_ 0.801474 0.392286 0.23735 -0.11981
C_ C_ 0.546321 0.408297 0.199072 0.26597
C_ C_ 0.78918 0.401285 0.208055 0.26597
C_ C_ 0.541582 0.443014 0.192427 -0.11981
C_ C_ 0.785677 0.437097 0.201858 -0.11981
C_ C_ 0.546302 0.46962 0.213852 0.19611
C_ C_ 0.790235 0.461478 0.225233 0.19611
N_ N_ 0.651763 0.215884 0.0657576 -0.35402
N_ N_ 0.897803 0.223198 0.065286 -0.35402
N_ N_ 0.616797 0.154646 0.140942 -0.27957
N_ N_ 0.856557 0.163877 0.14363 -0.27957
N_ N_ 0.533956 0.125518 0.0726825 -0.27957
N_ N_ 0.783326 0.128761 0.0714881 -0.27957
N_ N_ 0.553787 0.205954 0.00762729 -0.35402
N_ N_ 0.803505 0.205262 0.00203624 -0.35402
N_ N_ 0.599703 0.0306539 0.314731 -0.35402
N_ N_ 0.842893 0.0270992 0.314292 -0.35402
N_ N_ 0.639966 0.0890049 0.392004 -0.27957
N_ N_ 0.890301 0.0911209 0.387918 -0.27957
N_ N_ 0.718622 0.1248 0.316198 -0.27957
N_ N_ 0.967162 0.119363 0.317031 -0.27957
N_ N_ 0.697113 0.0404671 0.253595 -0.35402
N_ N_ 0.942925 0.0385393 0.253418 -0.35402
N_ N_ 0.587153 0.278478 0.433803 -0.35402
N_ N_ 0.852553 0.276888 0.436073 -0.35402
N_ N_ 0.63724 0.34469 0.364351 -0.27957
N_ N_ 0.899463 0.343769 0.366409 -0.27957
N_ N_ 0.707042 0.370987 0.432703 -0.27957
N_ N_ 0.970583 0.372854 0.428889 -0.27957
N_ N_ 0.692967 0.292997 0.498367 -0.35402
N_ N_ 0.94064 0.29355 0.491761 -0.35402
N_ N_ 0.653699 0.475975 0.183951 -0.35402
N_ N_ 0.891126 0.470816 0.185997 -0.35402
N_ N_ 0.612862 0.419426 0.106062 -0.27957
N_ N_ 0.852554 0.409168 0.110122 -0.27957
N_ N_ 0.540587 0.381412 0.176753 -0.27957
N_ N_ 0.783289 0.377 0.18399 -0.27957
N_ N_ 0.556125 0.46209 0.243303 -0.35402
N_ N_ 0.802904 0.453923 0.253464 -0.35402
O_ O_ 0.611815 0.0277854 0.231644 -0.59275
O_ O_ 0.856897 0.0303249 0.233168 -0.59275
O_ O_ 0.556192 0.0354951 0.253969 -0.41573
O_ O_ 0.799381 0.0384146 0.25311 -0.41573
O_ O_ 0.556537 0.178119 0.144066 -0.59275
O_ O_ 0.79322 0.18211 0.147115 -0.59275
O_ O_ 0.669178 0.130939 0.162678 -0.59275
O_ O_ 0.911957 0.135754 0.155907 -0.59275
O_ O_ 0.690741 0.0433033 0.179827 -0.59275
O_ O_ 0.930845 0.0436251 0.170854 -0.59275
O_ O_ 0.738565 0.0122558 0.191405 -0.41573
O_ O_ 0.975713 0.0132808 0.189167 -0.41573
O_ O_ 0.716624 0.129847 0.076542 -0.59275
O_ O_ 0.972746 0.135306 0.0775085 -0.59275
O_ O_ 0.593552 0.102065 0.0686843 -0.59275
O_ O_ 0.844812 0.103777 0.0669816 -0.59275
O_ O_ 0.64759 0.217144 0.48336 -0.59275
O_ O_ 0.891036 0.217692 0.483068 -0.59275
O_ O_ 0.697713 0.210256 0.00659614 -0.41573
O_ O_ 0.941424 0.211581 0.00558111 -0.41573
O_ O_ 0.704797 0.0740173 0.388845 -0.59275
O_ O_ 0.955832 0.0875246 0.376804 -0.59275
O_ O_ 0.586116 0.116139 0.408993 -0.59275
O_ O_ 0.836763 0.10799 0.412854 -0.59275
O_ O_ 0.561968 0.201185 0.426722 -0.59275
O_ O_ 0.820315 0.209559 0.42104 -0.59275
O_ O_ 0.515785 0.236679 0.438086 -0.41573
O_ O_ 0.770137 0.226804 0.443744 -0.41573
O_ O_ 0.527985 0.111295 0.332144 -0.59275
O_ O_ 0.784995 0.127581 0.316528 -0.59275
O_ O_ 0.655102 0.137696 0.323892 -0.59275
O_ O_ 0.905149 0.137321 0.31947 -0.59275
O_ O_ 0.626882 0.472534 0.265801 -0.59275
O_ O_ 0.886991 0.464402 0.267753 -0.59275
O_ O_ 0.684852 0.464007 0.245667 -0.41573
O_ O_ 0.945026 0.457645 0.245827 -0.41573
O_ O_ 0.701992 0.3352 0.364891 -0.59275
O_ O_ 0.964895 0.330679 0.364369 -0.59275
O_ O_ 0.58183 0.364279 0.342995 -0.59275
O_ O_ 0.842268 0.359572 0.345768 -0.59275
O_ O_ 0.572168 0.458345 0.327713 -0.59275
O_ O_ 0.819004 0.450623 0.327695 -0.59275
O_ O_ 0.526068 0.48611 0.307721 -0.41573
O_ O_ 0.776485 0.489123 0.316365 -0.41573
O_ O_ 0.531737 0.374627 0.423258 -0.59275
O_ O_ 0.771005 0.360506 0.42909 -0.59275
O_ O_ 0.652722 0.40244 0.432903 -0.59275
O_ O_ 0.908458 0.395408 0.427733 -0.59275
O_ O_ 0.607598 0.280453 0.0206448 -0.59275
O_ O_ 0.859919 0.284529 0.015499 -0.59275
O_ O_ 0.545503 0.291886 0.494286 -0.41573
O_ O_ 0.805872 0.291414 0.493585 -0.41573
O_ O_ 0.547128 0.430358 0.110074 -0.59275
O_ O_ 0.789587 0.421231 0.114699 -0.59275
O_ O_ 0.6682 0.39413 0.087691 -0.59275
O_ O_ 0.906452 0.382154 0.0937368 -0.59275
O_ O_ 0.686459 0.302291 0.0737451 -0.59275
O_ O_ 0.931981 0.30056 0.0739645 -0.59275
O_ O_ 0.729831 0.261298 0.0647919 -0.41573
O_ O_ 0.974664 0.262957 0.0622561 -0.41573
O_ O_ 0.718457 0.380465 0.178127 -0.59275
O_ O_ 0.969601 0.392903 0.163854 -0.59275
O_ O_ 0.601796 0.366975 0.16894 -0.59275
O_ O_ 0.843611 0.356029 0.180329 -0.59275
Cd Cd 0.688455 0.00627173 0.719983 0.98062
Cd Cd 0.937225 -0.0004089999999999927 0.719242 0.98062
Cd Cd 0.572118 0.245464 0.973209 0.98062
Cd Cd 0.817101 0.246898 0.969544 0.98062
Cd Cd 0.569825 0.496973 0.777347 0.98062
Cd Cd 0.812703 0.49905 0.778355 0.98062
Cd Cd 0.688026 0.250805 0.534148 0.98062
Cd Cd 0.938302 0.254107 0.528388 0.98062
H_ H_ 0.516034 0.0870047 0.730903 0.11374
H_ H_ 0.777382 0.0977638 0.72588 0.11374
H_ H_ 0.766555 0.137946 0.6851 0.11374
H_ H_ 0.0101275 0.130087 0.69204 0.11374
H_ H_ 0.636757 0.0982107 0.706549 0.11374
H_ H_ 0.888296 0.0802213 0.689334 0.11374
H_ H_ 0.622332 0.266156 0.586802 0.11374
H_ H_ 0.884903 0.265521 0.584149 0.11374
H_ H_ 0.596621 0.229522 0.630416 0.11374
H_ H_ 0.847513 0.227473 0.623972 0.11374
H_ H_ 0.640916 0.139307 0.59192 0.11374
H_ H_ 0.900495 0.141003 0.58917 0.11374
H_ H_ 0.671134 0.177006 0.551167 0.11374
H_ H_ 0.931205 0.175761 0.550091 0.11374
H_ H_ 0.551401 0.0310667 0.662664 0.11374
H_ H_ 0.788285 0.02174 0.652486 0.11374
H_ H_ 0.59152 0.0551459 0.622341 0.11374
H_ H_ 0.833704 0.0506888 0.619488 0.11374
H_ H_ 0.70613 0.0947283 0.63124 0.11374
H_ H_ 0.961836 0.0930025 0.637125 0.11374
H_ H_ 0.562895 0.164276 0.977556 0.11374
H_ H_ 0.804715 0.161917 0.971708 0.11374
H_ H_ 0.558965 0.120675 0.51174 0.11374
H_ H_ 0.808542 0.119496 0.509981 0.11374
H_ H_ 0.522853 0.193631 0.575214 0.11374
H_ H_ 0.780599 0.194968 0.575456 0.11374
H_ H_ 0.532279 0.238368 0.535505 0.11374
H_ H_ 0.790284 0.240701 0.536662 0.11374
H_ H_ 0.730208 0.161172 0.982376 0.11374
H_ H_ 0.981314 0.168814 0.974189 0.11374
H_ H_ 0.495717 0.111607 0.937753 0.11374
H_ H_ 0.740675 0.116767 0.942482 0.11374
H_ H_ 0.61346 0.169251 0.951044 0.11374
H_ H_ 0.866659 0.172851 0.942184 0.11374
H_ H_ 0.635203 0.495171 0.827573 0.11374
H_ H_ 0.883181 0.48868 0.832328 0.11374
H_ H_ 0.658382 0.0240042 0.875846 0.11374
H_ H_ 0.915657 0.0272032 0.871486 0.11374
H_ H_ 0.587686 0.105435 0.856173 0.11374
H_ H_ 0.837383 0.105029 0.852939 0.11374
H_ H_ 0.567012 0.0705041 0.811436 0.11374
H_ H_ 0.817825 0.0738275 0.807233 0.11374
H_ H_ 0.7008 0.207257 0.91801 0.11374
H_ H_ 0.955965 0.222236 0.905086 0.11374
H_ H_ 0.661288 0.176401 0.878145 0.11374
H_ H_ 0.914194 0.191946 0.866564 0.11374
H_ H_ 0.549692 0.166037 0.882467 0.11374
H_ H_ 0.802589 0.165359 0.881029 0.11374
H_ H_ 0.684599 0.0852123 0.728452 0.11374
H_ H_ 0.935224 0.0796456 0.725386 0.11374
H_ H_ 0.694253 0.128756 0.767315 0.11374
H_ H_ 0.946199 0.125819 0.764737 0.11374
H_ H_ 0.730854 0.0507962 0.822991 0.11374
H_ H_ 0.985834 0.044652 0.823991 0.11374
H_ H_ 0.714867 0.00579576 0.786434 0.11374
H_ H_ 0.974279 0.00383298 0.782087 0.11374
H_ H_ 0.733112 0.419405 0.776353 0.11374
H_ H_ 0.977555 0.422629 0.779439 0.11374
H_ H_ 0.488953 0.366011 0.808819 0.11374
H_ H_ 0.744994 0.374444 0.81199 0.11374
H_ H_ 0.615873 0.41891 0.807704 0.11374
H_ H_ 0.857529 0.426196 0.802029 0.11374
H_ H_ 0.626949 0.237835 0.917305 0.11374
H_ H_ 0.873562 0.244147 0.915192 0.11374
H_ H_ 0.647294 0.270712 0.871532 0.11374
H_ H_ 0.899029 0.281253 0.873734 0.11374
H_ H_ 0.600039 0.358449 0.907625 0.11374
H_ H_ 0.844879 0.367878 0.910037 0.11374
H_ H_ 0.573318 0.323432 0.948159 0.11374
H_ H_ 0.827692 0.333738 0.955825 0.11374
H_ H_ 0.705746 0.475091 0.84467 0.11374
H_ H_ 0.95906 0.485151 0.853895 0.11374
H_ H_ 0.659714 0.447077 0.887031 0.11374
H_ H_ 0.917429 0.457211 0.895273 0.11374
H_ H_ 0.550829 0.410296 0.861353 0.11374
H_ H_ 0.795349 0.414484 0.873838 0.11374
H_ H_ 0.678202 0.333443 0.528573 0.11374
H_ H_ 0.92403 0.331405 0.520153 0.11374
H_ H_ 0.691158 0.379295 0.985813 0.11374
H_ H_ 0.941137 0.38125 0.992773 0.11374
H_ H_ 0.726404 0.304331 0.926314 0.11374
H_ H_ 0.985287 0.306054 0.933658 0.11374
H_ H_ 0.714917 0.257875 0.964249 0.11374
H_ H_ 0.954374 0.259558 0.963782 0.11374
H_ H_ 0.520932 0.347999 0.515684 0.11374
H_ H_ 0.775597 0.347441 0.517254 0.11374
H_ H_ 0.762028 0.39099 0.558912 0.11374
H_ H_ 0.00610676 0.386883 0.554335 0.11374
H_ H_ 0.621751 0.318051 0.560063 0.11374
H_ H_ 0.881538 0.32684 0.562052 0.11374
H_ H_ 0.627921 0.0151383 0.664626 0.11374
H_ H_ 0.871863 0.0014400000000001079 0.672409 0.11374
H_ H_ 0.586472 0.471253 0.626997 0.11374
H_ H_ 0.844019 0.47084 0.621191 0.11374
H_ H_ 0.654217 0.386514 0.656442 0.11374
H_ H_ 0.904574 0.390332 0.662129 0.11374
H_ H_ 0.686355 0.430128 0.695683 0.11374
H_ H_ 0.923105 0.426079 0.703808 0.11374
H_ H_ 0.536628 0.270243 0.596398 0.11374
H_ H_ 0.804616 0.281549 0.591006 0.11374
H_ H_ 0.576849 0.298369 0.633809 0.11374
H_ H_ 0.841106 0.309185 0.632591 0.11374
H_ H_ 0.706044 0.333547 0.623715 0.11374
H_ H_ 0.957891 0.347829 0.616543 0.11374
H_ H_ 0.570309 0.410774 0.772768 0.11374
H_ H_ 0.802608 0.416189 0.781306 0.11374
H_ H_ 0.546682 0.367486 0.734971 0.11374
H_ H_ 0.795802 0.366798 0.747378 0.11374
H_ H_ 0.522974 0.448351 0.671797 0.11374
H_ H_ 0.778668 0.440702 0.674369 0.11374
H_ H_ 0.541431 0.48882 0.713952 0.11374
H_ H_ 0.80212 0.487257 0.711181 0.11374
C_ C_ 0.583454 0.0546485 0.740767 0.62841
C_ C_ 0.836504 0.0549725 0.734156 0.62841
C_ C_ 0.576704 0.0846591 0.719721 -0.11088
C_ C_ 0.831868 0.0833571 0.710452 -0.11088
C_ C_ 0.539549 0.0979561 0.716856 -0.11981
C_ C_ 0.799524 0.103358 0.710204 -0.11981
C_ C_ 0.530993 0.124073 0.695794 -0.11981
C_ C_ 0.794623 0.126793 0.686883 -0.11981
C_ C_ 0.561444 0.135078 0.676264 -0.11088
C_ C_ 0.821982 0.131506 0.665437 -0.11088
C_ C_ 0.596883 0.120803 0.676712 -0.11088
C_ C_ 0.857855 0.119173 0.669764 -0.11088
C_ C_ 0.606708 0.0977811 0.700125 -0.11981
C_ C_ 0.863748 0.09551 0.691884 -0.11981
C_ C_ 0.619287 0.136412 0.65426 0.50456
C_ C_ 0.885061 0.14038 0.65303 0.50456
C_ C_ 0.564554 0.158189 0.651734 0.50456
C_ C_ 0.82745 0.157032 0.645055 0.50456
C_ C_ 0.628773 0.239475 0.588755 0.19611
C_ C_ 0.883429 0.237229 0.582351 0.19611
C_ C_ 0.613507 0.218308 0.613178 -0.11981
C_ C_ 0.86723 0.216306 0.606592 -0.11981
C_ C_ 0.616259 0.181816 0.613489 0.26597
C_ C_ 0.879574 0.184211 0.611638 0.26597
C_ C_ 0.637742 0.168311 0.59161 -0.11981
C_ C_ 0.896124 0.168175 0.587858 -0.11981
C_ C_ 0.652934 0.189032 0.567355 0.19611
C_ C_ 0.91073 0.187588 0.563371 0.19611
C_ C_ 0.723867 0.0452928 0.675479 0.62841
C_ C_ 0.970713 0.0340751 0.670629 0.62841
C_ C_ 0.745879 0.0577326 0.64772 -0.11088
C_ C_ 0.994826 0.0495452 0.644399 -0.11088
C_ C_ 0.538011 0.0473085 0.646609 -0.11981
C_ C_ 0.780419 0.0448612 0.641846 -0.11981
C_ C_ 0.560851 0.0609901 0.622663 -0.11981
C_ C_ 0.805749 0.0607279 0.621971 -0.11981
C_ C_ 0.546286 0.0857923 0.604218 -0.11088
C_ C_ 0.793364 0.0870666 0.603832 -0.11088
C_ C_ 0.757369 0.0966908 0.605587 -0.11088
C_ C_ 0.0095432 0.0940729 0.607268 -0.11088
C_ C_ 0.733025 0.0827197 0.627159 -0.11981
C_ C_ 0.986024 0.0799255 0.630264 -0.11981
C_ C_ 0.561898 0.105985 0.58072 0.50456
C_ C_ 0.812328 0.105021 0.580824 0.50456
C_ C_ 0.756251 0.124055 0.586187 0.50456
C_ C_ 0.0032782 0.118383 0.585092 0.50456
C_ C_ 0.557591 0.171845 0.49613 0.19611
C_ C_ 0.812691 0.173002 0.495522 0.19611
C_ C_ 0.553091 0.145709 0.517944 -0.11981
C_ C_ 0.808414 0.145767 0.517282 -0.11981
C_ C_ 0.54532 0.153473 0.548358 0.26597
C_ C_ 0.79947 0.153996 0.547475 0.26597
C_ C_ 0.537157 0.187079 0.554819 -0.11981
C_ C_ 0.793258 0.188742 0.554132 -0.11981
C_ C_ 0.540599 0.212115 0.531726 0.19611
C_ C_ 0.79912 0.215321 0.531835 0.19611
C_ C_ 0.668323 0.200606 0.988923 0.62841
C_ C_ 0.915949 0.200756 0.984319 0.62841
C_ C_ 0.673251 0.170752 0.968174 -0.11088
C_ C_ 0.922595 0.172784 0.961838 -0.11088
C_ C_ 0.707558 0.152987 0.967968 -0.11981
C_ C_ 0.957431 0.157526 0.960487 -0.11981
C_ C_ 0.712923 0.127219 0.946074 -0.11981
C_ C_ 0.965083 0.132124 0.939395 -0.11981
C_ C_ 0.681838 0.115664 0.92684 -0.11088
C_ C_ 0.932912 0.116674 0.922976 -0.11088
C_ C_ 0.646772 0.128304 0.932023 -0.11088
C_ C_ 0.897035 0.129332 0.926267 -0.11088
C_ C_ 0.641898 0.157632 0.949657 -0.11981
C_ C_ 0.891317 0.159483 0.943056 -0.11981
C_ C_ 0.622214 0.110581 0.911132 0.50456
C_ C_ 0.873808 0.114839 0.905085 0.50456
C_ C_ 0.677599 0.0910266 0.9049 0.50456
C_ C_ 0.928773 0.0953653 0.898691 0.50456
C_ C_ 0.628027 0.0193245 0.835781 0.19611
C_ C_ 0.876031 0.0171016 0.835154 0.19611
C_ C_ 0.637645 0.0354047 0.8621 -0.11981
C_ C_ 0.891438 0.036588 0.859426 -0.11981
C_ C_ 0.627453 0.0684996 0.868423 0.26597
C_ C_ 0.87526 0.0684325 0.866117 0.26597
C_ C_ 0.5992 0.0808545 0.850449 -0.11981
C_ C_ 0.846529 0.0794719 0.848443 -0.11981
C_ C_ 0.589405 0.0624729 0.824304 0.19611
C_ C_ 0.837194 0.0623084 0.821819 0.19611
C_ C_ 0.535239 0.21535 0.922529 0.62841
C_ C_ 0.783689 0.210592 0.923173 0.62841
C_ C_ 0.506834 0.200732 0.898112 -0.11088
C_ C_ 0.756826 0.192756 0.90036 -0.11088
C_ C_ 0.716298 0.197102 0.899541 -0.11981
C_ C_ 0.967013 0.202115 0.891675 -0.11981
C_ C_ 0.691758 0.180911 0.876109 -0.11981
C_ C_ 0.943978 0.186066 0.869273 -0.11981
C_ C_ 0.709471 0.161768 0.854954 -0.11088
C_ C_ 0.96151 0.160517 0.851737 -0.11088
C_ C_ 0.493476 0.154136 0.86146 -0.11088
C_ C_ 0.746764 0.154407 0.857008 -0.11088
C_ C_ 0.520362 0.173495 0.880263 -0.11981
C_ C_ 0.771916 0.169925 0.878436 -0.11981
C_ C_ 0.692266 0.137848 0.836352 0.50456
C_ C_ 0.946729 0.138922 0.828024 0.50456
C_ C_ 0.496387 0.126519 0.840021 0.50456
C_ C_ 0.750556 0.127174 0.839202 0.50456
C_ C_ 0.689707 0.077966 0.749449 0.19611
C_ C_ 0.946428 0.0721417 0.747426 0.19611
C_ C_ 0.696544 0.10221 0.772472 -0.11981
C_ C_ 0.952578 0.0991029 0.769804 -0.11981
C_ C_ 0.713072 0.093473 0.79982 0.26597
C_ C_ 0.964276 0.0877043 0.798496 0.26597
C_ C_ 0.719622 0.0586608 0.803008 -0.11981
C_ C_ 0.971824 0.0530125 0.803737 -0.11981
C_ C_ 0.708198 0.0323225 0.78144 0.19611
C_ C_ 0.964518 0.0296213 0.780243 0.19611
C_ C_ 0.666844 0.446893 0.762383 0.62841
C_ C_ 0.913094 0.457466 0.765012 0.62841
C_ C_ 0.673797 0.422934 0.78794 -0.11088
C_ C_ 0.916373 0.427647 0.786543 -0.11088
C_ C_ 0.709521 0.409348 0.790878 -0.11981
C_ C_ 0.952843 0.413962 0.791912 -0.11981
C_ C_ 0.715586 0.382718 0.811183 -0.11981
C_ C_ 0.956389 0.384971 0.810646 -0.11981
C_ C_ 0.684809 0.371894 0.830899 -0.11088
C_ C_ 0.923615 0.369907 0.825377 -0.11088
C_ C_ 0.649498 0.38334 0.827419 -0.11088
C_ C_ 0.886696 0.381901 0.821201 -0.11088
C_ C_ 0.645407 0.410892 0.809189 -0.11981
C_ C_ 0.88403 0.413252 0.80302 -0.11981
C_ C_ 0.626951 0.367351 0.849314 0.50456
C_ C_ 0.863214 0.36915 0.844491 0.50456
C_ C_ 0.681587 0.342931 0.850932 0.50456
C_ C_ 0.919831 0.3476 0.849183 0.50456
C_ C_ 0.62171 0.26495 0.914934 0.19611
C_ C_ 0.868505 0.272333 0.914604 0.19611
C_ C_ 0.638007 0.28432 0.890504 -0.11981
C_ C_ 0.879381 0.292636 0.889393 -0.11981
C_ C_ 0.630239 0.319944 0.887592 0.26597
C_ C_ 0.869953 0.327174 0.886509 0.26597
C_ C_ 0.607891 0.332506 0.910174 -0.11981
C_ C_ 0.851958 0.341958 0.910751 -0.11981
C_ C_ 0.590094 0.311632 0.932746 0.19611
C_ C_ 0.839655 0.320653 0.935975 0.19611
C_ C_ 0.536402 0.465841 0.829 0.62841
C_ C_ 0.780739 0.463098 0.832729 0.62841
C_ C_ 0.511264 0.447781 0.852502 -0.11088
C_ C_ 0.752221 0.446066 0.854983 -0.11088
C_ C_ 0.714796 0.456774 0.859774 -0.11981
C_ C_ 0.966049 0.461128 0.86466 -0.11981
C_ C_ 0.68973 0.440601 0.882988 -0.11981
C_ C_ 0.943371 0.447237 0.888534 -0.11981
C_ C_ 0.705138 0.415282 0.900363 -0.11088
C_ C_ 0.95881 0.421869 0.906567 -0.11088
C_ C_ 0.500774 0.406889 0.893908 -0.11088
C_ C_ 0.741993 0.406253 0.896979 -0.11088
C_ C_ 0.526618 0.422397 0.871506 -0.11981
C_ C_ 0.765062 0.421285 0.874284 -0.11981
C_ C_ 0.686408 0.391855 0.918772 0.50456
C_ C_ 0.940848 0.397631 0.92705 0.50456
C_ C_ 0.501844 0.377331 0.914085 0.50456
C_ C_ 0.743103 0.375975 0.912461 0.50456
C_ C_ 0.693384 0.326585 0.00469828 0.19611
C_ C_ 0.935617 0.328644 0.00591482 0.19611
C_ C_ 0.695076 0.35182 0.981098 -0.11981
C_ C_ 0.94403 0.355138 0.985535 -0.11981
C_ C_ 0.707864 0.344498 0.952883 0.26597
C_ C_ 0.960057 0.347607 0.958186 0.26597
C_ C_ 0.711908 0.308695 0.946646 -0.11981
C_ C_ 0.965447 0.313064 0.950463 -0.11981
C_ C_ 0.708149 0.283954 0.969139 0.19611
C_ C_ 0.95619 0.286473 0.971937 0.19611
C_ C_ 0.5752 0.301201 0.51213 0.62841
C_ C_ 0.83268 0.301348 0.513864 0.62841
C_ C_ 0.569563 0.326142 0.537032 -0.11088
C_ C_ 0.827599 0.331643 0.535194 -0.11088
C_ C_ 0.539123 0.349549 0.534559 -0.11981
C_ C_ 0.792742 0.349202 0.536544 -0.11981
C_ C_ 0.53446 0.373631 0.557908 -0.11981
C_ C_ 0.787425 0.375671 0.558368 -0.11981
C_ C_ 0.563625 0.380364 0.578704 -0.11088
C_ C_ 0.817922 0.383924 0.578185 -0.11088
C_ C_ 0.596227 0.361754 0.579158 -0.11088
C_ C_ 0.851102 0.367135 0.577876 -0.11088
C_ C_ 0.598827 0.333587 0.558924 -0.11981
C_ C_ 0.856363 0.340164 0.558037 -0.11981
C_ C_ 0.620563 0.375519 0.601183 0.50456
C_ C_ 0.871679 0.379151 0.602177 0.50456
C_ C_ 0.569693 0.406809 0.599363 0.50456
C_ C_ 0.819324 0.40444 0.604321 0.50456
C_ C_ 0.620871 0.47847 0.668132 0.19611
C_ C_ 0.878046 0.484417 0.660735 0.19611
C_ C_ 0.606346 0.459095 0.642423 -0.11981
C_ C_ 0.863085 0.461809 0.638313 -0.11981
C_ C_ 0.618105 0.425656 0.637992 0.26597
C_ C_ 0.869435 0.426349 0.64024 0.26597
C_ C_ 0.64287 0.412327 0.660064 -0.11981
C_ C_ 0.892794 0.41557 0.663482 -0.11981
C_ C_ 0.661257 0.436148 0.681251 0.19611
C_ C_ 0.90651 0.438024 0.686012 0.19611
C_ C_ 0.725641 0.289672 0.578251 0.62841
C_ C_ 0.973465 0.293235 0.575388 0.62841
C_ C_ 0.750314 0.303591 0.603514 -0.11088
C_ C_ 0.999343 0.31042 0.601173 -0.11088
C_ C_ 0.523788 0.28796 0.610915 -0.11981
C_ C_ 0.788649 0.293534 0.60815 -0.11981
C_ C_ 0.54741 0.30408 0.632578 -0.11981
C_ C_ 0.80898 0.308457 0.632824 -0.11981
C_ C_ 0.534274 0.33005 0.649836 -0.11088
C_ C_ 0.790585 0.32578 0.656145 -0.11088
C_ C_ 0.753545 0.334611 0.651651 -0.11088
C_ C_ 0.00651018 0.350254 0.64577 -0.11088
C_ C_ 0.733187 0.323084 0.626955 -0.11981
C_ C_ 0.985375 0.337412 0.620644 -0.11981
C_ C_ 0.554187 0.353787 0.668598 0.50456
C_ C_ 0.808616 0.350556 0.675707 0.50456
C_ C_ 0.750431 0.365752 0.669229 0.50456
C_ C_ 0.00818368 0.382916 0.660221 0.50456
C_ C_ 0.556208 0.41822 0.753202 0.19611
C_ C_ 0.800782 0.422169 0.757847 0.19611
C_ C_ 0.547338 0.393899 0.72993 -0.11981
C_ C_ 0.794025 0.39379 0.738619 -0.11981
C_ C_ 0.537553 0.403199 0.700841 0.26597
C_ C_ 0.78911 0.400641 0.708217 0.26597
C_ C_ 0.531272 0.438593 0.694526 -0.11981
C_ C_ 0.785801 0.434591 0.698523 -0.11981
C_ C_ 0.543901 0.462437 0.71727 0.19611
C_ C_ 0.796552 0.461677 0.719148 0.19611
N_ N_ 0.65037 0.224148 0.566965 -0.35402
N_ N_ 0.906609 0.222587 0.561651 -0.35402
N_ N_ 0.599924 0.159877 0.639012 -0.27957
N_ N_ 0.86442 0.162681 0.636898 -0.27957
N_ N_ 0.535835 0.126331 0.569912 -0.27957
N_ N_ 0.790008 0.12847 0.570274 -0.27957
N_ N_ 0.546916 0.203078 0.503055 -0.35402
N_ N_ 0.810533 0.207555 0.504105 -0.35402
N_ N_ 0.598688 0.0295277 0.818891 -0.35402
N_ N_ 0.85236 0.0316645 0.814993 -0.35402
N_ N_ 0.640767 0.0878062 0.89488 -0.27957
N_ N_ 0.891246 0.0896547 0.890283 -0.27957
N_ N_ 0.717965 0.117846 0.824624 -0.27957
N_ N_ 0.971236 0.114049 0.822357 -0.27957
N_ N_ 0.693943 0.0429258 0.754892 -0.35402
N_ N_ 0.950331 0.0389457 0.753179 -0.35402
N_ N_ 0.601181 0.279243 0.936879 -0.35402
N_ N_ 0.845845 0.285395 0.936684 -0.35402
N_ N_ 0.644428 0.341009 0.862359 -0.27957
N_ N_ 0.883574 0.34769 0.861129 -0.27957
N_ N_ 0.711234 0.369481 0.928824 -0.27957
N_ N_ 0.966173 0.375253 0.935862 -0.27957
N_ N_ 0.69778 0.292321 -0.0024640000000000217 -0.35402
N_ N_ 0.936526 0.294423 0.996484 -0.35402
N_ N_ 0.64658 0.466744 0.687049 -0.35402
N_ N_ 0.899237 0.471769 0.684537 -0.35402
N_ N_ 0.603419 0.403857 0.61377 -0.27957
N_ N_ 0.853043 0.401965 0.618064 -0.27957
N_ N_ 0.530104 0.377448 0.678541 -0.27957
N_ N_ 0.782203 0.37256 0.68611 -0.27957
N_ N_ 0.55731 0.453487 0.745654 -0.35402
N_ N_ 0.802678 0.45507 0.749091 -0.35402
O_ O_ 0.613693 0.0371867 0.737672 -0.59275
O_ O_ 0.869067 0.0386539 0.735659 -0.59275
O_ O_ 0.555708 0.0417947 0.759586 -0.41573
O_ O_ 0.808932 0.0456111 0.754703 -0.41573
O_ O_ 0.534302 0.170563 0.637874 -0.59275
O_ O_ 0.800861 0.17395 0.633008 -0.59275
O_ O_ 0.656895 0.135311 0.65292 -0.59275
O_ O_ 0.917446 0.15432 0.665588 -0.59275
O_ O_ 0.687669 0.0523572 0.67768 -0.59275
O_ O_ 0.934223 0.0417279 0.67446 -0.59275
O_ O_ 0.735178 0.0223779 0.693506 -0.41573
O_ O_ 0.983858 0.0136035 0.691506 -0.41573
O_ O_ 0.724315 0.132049 0.573209 -0.59275
O_ O_ 0.967389 0.126064 0.578806 -0.59275
O_ O_ 0.592218 0.0995068 0.564083 -0.59275
O_ O_ 0.847074 0.100369 0.570665 -0.59275
O_ O_ 0.64114 0.222215 0.985538 -0.59275
O_ O_ 0.882978 0.215674 0.984693 -0.59275
O_ O_ 0.701006 0.207698 0.50972 -0.41573
O_ O_ 0.953143 0.215459 0.498019 -0.41573
O_ O_ 0.707464 0.0765761 0.892884 -0.59275
O_ O_ 0.957219 0.0781516 0.887657 -0.59275
O_ O_ 0.584442 0.107445 0.914452 -0.59275
O_ O_ 0.837104 0.108685 0.911718 -0.59275
O_ O_ 0.567981 0.202196 0.926793 -0.59275
O_ O_ 0.820147 0.202331 0.925635 -0.59275
O_ O_ 0.52505 0.234214 0.945579 -0.41573
O_ O_ 0.770977 0.23406 0.941866 -0.41573
O_ O_ 0.528722 0.119727 0.827765 -0.59275
O_ O_ 0.784066 0.124962 0.825729 -0.59275
O_ O_ 0.65651 0.135752 0.827457 -0.59275
O_ O_ 0.910543 0.137767 0.818257 -0.59275
O_ O_ 0.638711 0.466874 0.765313 -0.59275
O_ O_ 0.882362 0.47354 0.763107 -0.59275
O_ O_ 0.695987 0.460422 0.745918 -0.41573
O_ O_ 0.94203 0.467875 0.745112 -0.41573
O_ O_ 0.709752 0.329063 0.864785 -0.59275
O_ O_ 0.947818 0.331973 0.86346 -0.59275
O_ O_ 0.589389 0.367781 0.848822 -0.59275
O_ O_ 0.825993 0.362156 0.841405 -0.59275
O_ O_ 0.571922 0.457454 0.827492 -0.59275
O_ O_ 0.815932 0.454249 0.830203 -0.59275
O_ O_ 0.524254 0.483741 0.806814 -0.41573
O_ O_ 0.76906 0.479338 0.808893 -0.41573
O_ O_ 0.533861 0.366224 0.925636 -0.59275
O_ O_ 0.776151 0.368068 0.92268 -0.59275
O_ O_ 0.656945 0.397696 0.936602 -0.59275
O_ O_ 0.913643 0.406535 0.944529 -0.59275
O_ O_ 0.597917 0.27641 0.51618 -0.59275
O_ O_ 0.860925 0.282127 0.51618 -0.59275
O_ O_ 0.551856 0.287759 0.998768 -0.41573
O_ O_ 0.801467 0.286756 0.997092 -0.41573
O_ O_ 0.540526 0.418609 0.613208 -0.59275
O_ O_ 0.791481 0.416372 0.618994 -0.59275
O_ O_ 0.658865 0.376376 0.598691 -0.59275
O_ O_ 0.90834 0.384103 0.599078 -0.59275
O_ O_ 0.687983 0.291476 0.576785 -0.59275
O_ O_ 0.938772 0.301911 0.571314 -0.59275
O_ O_ 0.738534 0.267601 0.558762 -0.41573
O_ O_ 0.982912 0.267982 0.558424 -0.41573
O_ O_ 0.719658 0.381779 0.673444 -0.59275
O_ O_ 0.977567 0.399713 0.664811 -0.59275
O_ O_ 0.585869 0.347236 0.682148 -0.59275
O_ O_ 0.843068 0.349425 0.687339 -0.59275
Cd Cd 0.680253 0.505703 0.217993 0.98062
Cd Cd 0.926222 0.498512 0.221764 0.98062
Cd Cd 0.56214 0.746204 0.467858 0.98062
Cd Cd 0.820502 0.746287 0.471089 0.98062
Cd Cd 0.571789 0.9955 0.280074 0.98062
Cd Cd 0.817093 0.995276 0.278921 0.98062
Cd Cd 0.679393 0.755688 0.0270176 0.98062
Cd Cd 0.930467 0.753467 0.0314317 0.98062
H_ H_ 0.518558 0.590729 0.220181 0.11374
H_ H_ 0.769319 0.579123 0.226246 0.11374
H_ H_ 0.757007 0.619811 0.182055 0.11374
H_ H_ 0.00606187 0.617348 0.176502 0.11374
H_ H_ 0.637727 0.587593 0.196328 0.11374
H_ H_ 0.891532 0.593697 0.205768 0.11374
H_ H_ 0.626831 0.763007 0.077946 0.11374
H_ H_ 0.861242 0.758683 0.0769799 0.11374
H_ H_ 0.602661 0.729601 0.124014 0.11374
H_ H_ 0.833931 0.72419 0.118887 0.11374
H_ H_ 0.652477 0.642492 0.0909251 0.11374
H_ H_ 0.898776 0.63928 0.0959155 0.11374
H_ H_ 0.677931 0.675648 0.0474832 0.11374
H_ H_ 0.929798 0.674586 0.0563492 0.11374
H_ H_ 0.546606 0.531347 0.153429 0.11374
H_ H_ 0.784702 0.517753 0.149383 0.11374
H_ H_ 0.586344 0.558095 0.109715 0.11374
H_ H_ 0.826839 0.542222 0.106748 0.11374
H_ H_ 0.700365 0.588797 0.130055 0.11374
H_ H_ 0.941319 0.583066 0.12939 0.11374
H_ H_ 0.566401 0.665986 0.473186 0.11374
H_ H_ 0.810284 0.659167 0.47302 0.11374
H_ H_ 0.563606 0.627669 0.0113595 0.11374
H_ H_ 0.80156 0.618854 0.00659393 0.11374
H_ H_ 0.527434 0.702859 0.0735762 0.11374
H_ H_ 0.782249 0.692025 0.0727854 0.11374
H_ H_ 0.530555 0.746645 0.0345718 0.11374
H_ H_ 0.799441 0.73996 0.0369182 0.11374
H_ H_ 0.715684 0.649916 0.490322 0.11374
H_ H_ 0.987378 0.670306 0.475296 0.11374
H_ H_ 0.491011 0.613789 0.449505 0.11374
H_ H_ 0.725371 0.602626 0.451594 0.11374
H_ H_ 0.630175 0.687606 0.432093 0.11374
H_ H_ 0.866107 0.666444 0.447021 0.11374
H_ H_ 0.637415 0.992782 0.328198 0.11374
H_ H_ 0.885214 0.992568 0.325878 0.11374
H_ H_ 0.660799 0.532244 0.366211 0.11374
H_ H_ 0.915148 0.526631 0.373544 0.11374
H_ H_ 0.608534 0.621589 0.332607 0.11374
H_ H_ 0.846581 0.609134 0.350174 0.11374
H_ H_ 0.582626 0.58269 0.291575 0.11374
H_ H_ 0.818061 0.570794 0.306217 0.11374
H_ H_ 0.719859 0.735745 0.39872 0.11374
H_ H_ 0.954401 0.721306 0.406222 0.11374
H_ H_ 0.673332 0.707103 0.360091 0.11374
H_ H_ 0.914098 0.701181 0.363424 0.11374
H_ H_ 0.531903 0.650094 0.391345 0.11374
H_ H_ 0.793292 0.653266 0.388333 0.11374
H_ H_ 0.683307 0.589693 0.22402 0.11374
H_ H_ 0.951149 0.578418 0.219642 0.11374
H_ H_ 0.691244 0.631999 0.261806 0.11374
H_ H_ 0.971721 0.629307 0.252385 0.11374
H_ H_ 0.735823 0.555402 0.318295 0.11374
H_ H_ 0.961751 0.557326 0.326801 0.11374
H_ H_ 0.714189 0.509908 0.283208 0.11374
H_ H_ 0.936966 0.510435 0.291799 0.11374
H_ H_ 0.733689 0.909346 0.274544 0.11374
H_ H_ 0.985876 0.923568 0.282899 0.11374
H_ H_ 0.498495 0.866308 0.312085 0.11374
H_ H_ 0.740777 0.861559 0.307562 0.11374
H_ H_ 0.619672 0.921864 0.304949 0.11374
H_ H_ 0.865708 0.920046 0.306769 0.11374
H_ H_ 0.616468 0.736767 0.410519 0.11374
H_ H_ 0.885349 0.736058 0.420984 0.11374
H_ H_ 0.644514 0.77335 0.368538 0.11374
H_ H_ 0.905496 0.763698 0.370541 0.11374
H_ H_ 0.599692 0.862135 0.410363 0.11374
H_ H_ 0.852029 0.854326 0.402097 0.11374
H_ H_ 0.572185 0.823042 0.450492 0.11374
H_ H_ 0.820667 0.821025 0.442722 0.11374
H_ H_ 0.707113 0.965855 0.335329 0.11374
H_ H_ 0.963223 0.980025 0.347518 0.11374
H_ H_ 0.664638 0.940055 0.376747 0.11374
H_ H_ 0.916677 0.944149 0.380078 0.11374
H_ H_ 0.559812 0.920515 0.374448 0.11374
H_ H_ 0.799469 0.902679 0.362575 0.11374
H_ H_ 0.684153 0.835652 0.0203999 0.11374
H_ H_ 0.946013 0.836462 0.0328975 0.11374
H_ H_ 0.695867 0.881404 0.486242 0.11374
H_ H_ 0.943353 0.880917 0.479028 0.11374
H_ H_ 0.711215 0.797562 0.423517 0.11374
H_ H_ 0.978848 0.797602 0.424159 0.11374
H_ H_ 0.69832 0.755204 0.464336 0.11374
H_ H_ 0.969679 0.759393 0.469296 0.11374
H_ H_ 0.512517 0.823068 0.0407728 0.11374
H_ H_ 0.769547 0.843871 0.0160144 0.11374
H_ H_ 0.765477 0.888891 0.0571072 0.11374
H_ H_ 0.0124668 0.879438 0.0630798 0.11374
H_ H_ 0.636778 0.834365 0.0500639 0.11374
H_ H_ 0.882571 0.829804 0.0524965 0.11374
H_ H_ 0.622825 0.516305 0.170155 0.11374
H_ H_ 0.862158 0.510658 0.166498 0.11374
H_ H_ 0.605029 0.973405 0.122731 0.11374
H_ H_ 0.854787 0.973434 0.11955 0.11374
H_ H_ 0.652106 0.883578 0.159616 0.11374
H_ H_ 0.90298 0.884312 0.15357 0.11374
H_ H_ 0.682818 0.923263 0.200879 0.11374
H_ H_ 0.920729 0.919556 0.200101 0.11374
H_ H_ 0.536758 0.768552 0.0982965 0.11374
H_ H_ 0.795088 0.773911 0.0869248 0.11374
H_ H_ 0.583098 0.79783 0.137836 0.11374
H_ H_ 0.83679 0.802607 0.129251 0.11374
H_ H_ 0.704479 0.842357 0.113754 0.11374
H_ H_ 0.943708 0.838912 0.123973 0.11374
H_ H_ 0.564135 0.9131 0.282142 0.11374
H_ H_ 0.81552 0.912525 0.274778 0.11374
H_ H_ 0.554705 0.863231 0.244659 0.11374
H_ H_ 0.802193 0.866279 0.236222 0.11374
H_ H_ 0.526655 0.939953 0.179605 0.11374
H_ H_ 0.780937 0.946374 0.171929 0.11374
H_ H_ 0.553877 0.985226 0.211393 0.11374
H_ H_ 0.794668 0.987959 0.211802 0.11374
C_ C_ 0.582651 0.552432 0.230495 0.62841
C_ C_ 0.836028 0.546997 0.232079 0.62841
C_ C_ 0.578745 0.583468 0.210728 -0.11088
C_ C_ 0.83022 0.57706 0.212786 -0.11088
C_ C_ 0.543322 0.599648 0.208539 -0.11981
C_ C_ 0.79242 0.588776 0.209824 -0.11981
C_ C_ 0.538959 0.623221 0.185521 -0.11981
C_ C_ 0.785373 0.614498 0.188339 -0.11981
C_ C_ 0.568345 0.633498 0.165767 -0.11088
C_ C_ 0.816116 0.629256 0.171614 -0.11088
C_ C_ 0.603821 0.619016 0.168237 -0.11088
C_ C_ 0.853006 0.620685 0.177242 -0.11088
C_ C_ 0.609967 0.59695 0.193083 -0.11981
C_ C_ 0.861441 0.596518 0.199629 -0.11981
C_ C_ 0.629203 0.636104 0.147752 0.50456
C_ C_ 0.877726 0.641067 0.157904 0.50456
C_ C_ 0.573145 0.657372 0.143363 0.50456
C_ C_ 0.819131 0.652987 0.148241 0.50456
C_ C_ 0.632028 0.736676 0.0817981 0.19611
C_ C_ 0.87403 0.734449 0.0832054 0.19611
C_ C_ 0.618213 0.717425 0.10705 -0.11981
C_ C_ 0.856395 0.713351 0.106519 -0.11981
C_ C_ 0.626269 0.683416 0.11013 0.26597
C_ C_ 0.867931 0.679839 0.112514 0.26597
C_ C_ 0.646611 0.668785 0.0887087 -0.11981
C_ C_ 0.89085 0.664757 0.0919041 -0.11981
C_ C_ 0.659865 0.687556 0.0642166 0.19611
C_ C_ 0.906977 0.686125 0.068342 0.19611
C_ C_ 0.717039 0.538879 0.170144 0.62841
C_ C_ 0.953914 0.533643 0.168555 0.62841
C_ C_ 0.738091 0.548211 0.141061 -0.11088
C_ C_ 0.981222 0.5497 0.1455 -0.11088
C_ C_ 0.533621 0.548938 0.137823 -0.11981
C_ C_ 0.775544 0.536179 0.134487 -0.11981
C_ C_ 0.555774 0.564405 0.114169 -0.11981
C_ C_ 0.800473 0.552611 0.113422 -0.11981
C_ C_ 0.544063 0.593034 0.101066 -0.11088
C_ C_ 0.785975 0.579424 0.0960584 -0.11088
C_ C_ 0.752023 0.592529 0.102203 -0.11088
C_ C_ -0.004430000000000045 0.593629 0.106133 -0.11088
C_ C_ 0.726467 0.576726 0.124193 -0.11981
C_ C_ 0.9707 0.576952 0.127301 -0.11981
C_ C_ 0.561662 0.613637 0.0788099 0.50456
C_ C_ 0.803464 0.599007 0.0728199 0.50456
C_ C_ 0.749144 0.619491 0.0807214 0.50456
C_ C_ -0.007812999999999959 0.622259 0.0870544 0.50456
C_ C_ 0.555106 0.679714 0.993671 0.19611
C_ C_ 0.806646 0.673579 0.99216 0.19611
C_ C_ 0.553214 0.653145 0.0155904 -0.11981
C_ C_ 0.802513 0.645573 0.0130537 -0.11981
C_ C_ 0.542151 0.662388 0.0454121 0.26597
C_ C_ 0.791417 0.652261 0.0427147 0.26597
C_ C_ 0.537006 0.69738 0.0520784 -0.11981
C_ C_ 0.78502 0.686509 0.0501542 -0.11981
C_ C_ 0.540025 0.721967 0.0286831 0.19611
C_ C_ 0.79905 0.713806 0.0301144 0.19611
C_ C_ 0.662681 0.699789 0.487581 0.62841
C_ C_ 0.919149 0.705063 0.483489 0.62841
C_ C_ 0.673271 0.674104 0.462829 -0.11088
C_ C_ 0.924805 0.672654 0.465594 -0.11088
C_ C_ 0.700852 0.649787 0.468991 -0.11981
C_ C_ 0.963174 0.659622 0.46155 -0.11981
C_ C_ 0.702227 0.619112 0.450157 -0.11981
C_ C_ 0.967821 0.63273 0.440444 -0.11981
C_ C_ 0.676414 0.613742 0.426192 -0.11088
C_ C_ 0.936699 0.619253 0.423784 -0.11088
C_ C_ 0.649032 0.635448 0.421408 -0.11088
C_ C_ 0.901524 0.631816 0.426817 -0.11088
C_ C_ 0.64917 0.668153 0.436789 -0.11981
C_ C_ 0.894614 0.658956 0.446175 -0.11981
C_ C_ 0.631389 0.626366 0.394324 0.50456
C_ C_ 0.877224 0.610898 0.407556 0.50456
C_ C_ 0.67337 0.588997 0.402071 0.50456
C_ C_ 0.93377 0.593417 0.401556 0.50456
C_ C_ 0.623047 0.521848 0.329676 0.19611
C_ C_ 0.876956 0.516399 0.334979 0.19611
C_ C_ 0.640645 0.541545 0.352409 -0.11981
C_ C_ 0.891986 0.535739 0.360015 -0.11981
C_ C_ 0.634525 0.577576 0.355802 0.26597
C_ C_ 0.882649 0.569479 0.364971 0.26597
C_ C_ 0.613598 0.592367 0.332965 -0.11981
C_ C_ 0.857195 0.583438 0.345047 -0.11981
C_ C_ 0.597881 0.571929 0.309823 0.19611
C_ C_ 0.839283 0.562692 0.321152 0.19611
C_ C_ 0.526022 0.713061 0.420734 0.62841
C_ C_ 0.781274 0.708824 0.426458 0.62841
C_ C_ 0.499458 0.694793 0.397138 -0.11088
C_ C_ 0.757114 0.69532 0.398983 -0.11088
C_ C_ 0.723494 0.711136 0.388875 -0.11981
C_ C_ 0.966019 0.70512 0.388865 -0.11981
C_ C_ 0.700983 0.697426 0.364852 -0.11981
C_ C_ 0.943651 0.692725 0.364548 -0.11981
C_ C_ 0.712159 0.668084 0.350939 -0.11088
C_ C_ 0.96138 0.672236 0.342102 -0.11088
C_ C_ 0.487336 0.649746 0.357549 -0.11088
C_ C_ 0.744069 0.652645 0.359361 -0.11088
C_ C_ 0.509904 0.664312 0.38209 -0.11981
C_ C_ 0.769469 0.666425 0.381844 -0.11981
C_ C_ 0.701255 0.653403 0.32396 0.50456
C_ C_ 0.94387 0.648282 0.3221 0.50456
C_ C_ 0.491389 0.619435 0.339982 0.50456
C_ C_ 0.747438 0.624621 0.339256 0.50456
C_ C_ 0.685676 0.579786 0.246946 0.19611
C_ C_ 0.94894 0.575944 0.243206 0.19611
C_ C_ 0.69237 0.604739 0.267883 -0.11981
C_ C_ 0.961238 0.603971 0.261875 -0.11981
C_ C_ 0.710393 0.597653 0.295307 0.26597
C_ C_ 0.963345 0.597817 0.29279 0.26597
C_ C_ 0.71663 0.561661 0.301511 -0.11981
C_ C_ 0.953565 0.564342 0.304614 -0.11981
C_ C_ 0.707737 0.536554 0.279774 0.19611
C_ C_ 0.943079 0.536208 0.284425 0.19611
C_ C_ 0.673704 0.947952 0.263964 0.62841
C_ C_ 0.916921 0.951577 0.265738 0.62841
C_ C_ 0.675491 0.917247 0.284622 -0.11088
C_ C_ 0.923111 0.921157 0.287383 -0.11088
C_ C_ 0.708062 0.897748 0.285647 -0.11981
C_ C_ 0.959626 0.908068 0.290947 -0.11981
C_ C_ 0.711158 0.869119 0.304717 -0.11981
C_ C_ 0.964506 0.880001 0.311773 -0.11981
C_ C_ 0.678039 0.85905 0.321914 -0.11088
C_ C_ 0.931791 0.864169 0.32619 -0.11088
C_ C_ 0.646018 0.876354 0.321476 -0.11088
C_ C_ 0.896095 0.875496 0.32117 -0.11088
C_ C_ 0.644134 0.906149 0.303195 -0.11981
C_ C_ 0.891515 0.906548 0.305762 -0.11981
C_ C_ 0.623795 0.866468 0.3473 0.50456
C_ C_ 0.871737 0.858459 0.342273 0.50456
C_ C_ 0.674398 0.837912 0.347166 0.50456
C_ C_ 0.927421 0.836281 0.34585 0.50456
C_ C_ 0.615172 0.764796 0.412171 0.19611
C_ C_ 0.870408 0.75965 0.41258 0.19611
C_ C_ 0.632325 0.7852 0.388686 -0.11981
C_ C_ 0.887693 0.778428 0.387359 -0.11981
C_ C_ 0.626657 0.821322 0.387844 0.26597
C_ C_ 0.876621 0.811832 0.380017 0.26597
C_ C_ 0.606002 0.834772 0.411085 -0.11981
C_ C_ 0.852742 0.827169 0.401443 -0.11981
C_ C_ 0.590568 0.813984 0.434754 0.19611
C_ C_ 0.83786 0.807856 0.425595 0.19611
C_ C_ 0.536336 0.961576 0.327405 0.62841
C_ C_ 0.781872 0.952578 0.323054 0.62841
C_ C_ 0.51303 0.94724 0.354012 -0.11088
C_ C_ 0.757418 0.936598 0.346693 -0.11088
C_ C_ 0.718638 0.945524 0.350162 -0.11981
C_ C_ 0.973507 0.956518 0.359114 -0.11981
C_ C_ 0.6952 0.932304 0.374387 -0.11981
C_ C_ 0.948083 0.939599 0.380341 -0.11981
C_ C_ 0.708513 0.904309 0.390719 -0.11088
C_ C_ 0.962682 0.915735 0.401055 -0.11088
C_ C_ 0.505947 0.90782 0.397205 -0.11088
C_ C_ 0.745172 0.893639 0.387662 -0.11088
C_ C_ 0.529694 0.923705 0.374046 -0.11981
C_ C_ 0.770123 0.910192 0.364943 -0.11981
C_ C_ 0.692391 0.88554 0.415531 0.50456
C_ C_ 0.941954 0.887465 0.41613 0.50456
C_ C_ 0.511093 0.88194 0.418631 0.50456
C_ C_ 0.749878 0.871502 0.411551 0.50456
C_ C_ 0.693323 0.828972 0.504763 0.19611
C_ C_ 0.941015 0.830624 0.500548 0.19611
C_ C_ 0.698283 0.853157 0.481873 -0.11981
C_ C_ 0.951828 0.855042 0.47718 -0.11981
C_ C_ 0.709512 0.84361 0.453154 0.26597
C_ C_ 0.961421 0.842207 0.449365 0.26597
C_ C_ 0.706528 0.807531 0.447002 -0.11981
C_ C_ 0.967732 0.80673 0.446081 -0.11981
C_ C_ 0.700742 0.783242 0.470599 0.19611
C_ C_ 0.957418 0.784328 0.469158 0.19611
C_ C_ 0.579375 0.803716 0.0141633 0.62841
C_ C_ 0.829366 0.800105 0.0142087 0.62841
C_ C_ 0.574965 0.823124 0.0427739 -0.11088
C_ C_ 0.823785 0.830156 0.0347331 -0.11088
C_ C_ 0.538734 0.831669 0.0538561 -0.11981
C_ C_ 0.791972 0.849087 0.0326977 -0.11981
C_ C_ 0.536853 0.860837 0.0729673 -0.11981
C_ C_ 0.791206 0.879129 0.0518665 -0.11981
C_ C_ 0.569621 0.870908 0.0901225 -0.11088
C_ C_ 0.821839 0.888625 0.071044 -0.11088
C_ C_ 0.604853 0.861844 0.0811502 -0.11088
C_ C_ 0.852394 0.869066 0.0727233 -0.11088
C_ C_ 0.608411 0.841215 0.0547722 -0.11981
C_ C_ 0.853826 0.839908 0.0554068 -0.11981
C_ C_ 0.632079 0.883043 0.0966466 0.50456
C_ C_ 0.874887 0.880465 0.0967438 0.50456
C_ C_ 0.576217 0.901525 0.107314 0.50456
C_ C_ 0.823494 0.909957 0.0955213 0.50456
C_ C_ 0.635655 0.982421 0.165375 0.19611
C_ C_ 0.87649 0.979662 0.165212 0.19611
C_ C_ 0.622479 0.96327 0.140544 -0.11981
C_ C_ 0.863409 0.959148 0.139629 -0.11981
C_ C_ 0.628146 0.927292 0.138165 0.26597
C_ C_ 0.871248 0.924599 0.136048 0.26597
C_ C_ 0.650522 0.912021 0.159752 -0.11981
C_ C_ 0.896513 0.911562 0.156765 -0.11981
C_ C_ 0.663645 0.933259 0.184674 0.19611
C_ C_ 0.906754 0.931928 0.182804 0.19611
C_ C_ 0.719596 0.795246 0.068237 0.62841
C_ C_ 0.961712 0.787391 0.0834847 0.62841
C_ C_ 0.747101 0.808212 0.0932511 -0.11088
C_ C_ 0.987645 0.80603 0.106767 -0.11088
C_ C_ 0.524764 0.783985 0.11498 -0.11981
C_ C_ 0.784153 0.796925 0.0995279 -0.11981
C_ C_ 0.552526 0.80182 0.134707 -0.11981
C_ C_ 0.807843 0.811448 0.123531 -0.11981
C_ C_ 0.537692 0.824844 0.154917 -0.11088
C_ C_ 0.791342 0.834548 0.142901 -0.11088
C_ C_ 0.760157 0.850448 0.134454 -0.11088
C_ C_ 0.996661 0.843489 0.152027 -0.11088
C_ C_ 0.735614 0.835886 0.112757 -0.11981
C_ C_ 0.97407 0.833399 0.125344 -0.11981
C_ C_ 0.556252 0.84457 0.177488 0.50456
C_ C_ 0.804491 0.850316 0.169684 0.50456
C_ C_ 0.753136 0.875365 0.157549 0.50456
C_ C_ 0.995173 0.874061 0.167975 0.50456
C_ C_ 0.562002 0.918753 0.258105 0.19611
C_ C_ 0.807862 0.918927 0.252147 0.19611
C_ C_ 0.555443 0.89009 0.237741 -0.11981
C_ C_ 0.801359 0.892616 0.22982 -0.11981
C_ C_ 0.543933 0.896645 0.208411 0.26597
C_ C_ 0.79155 0.901022 0.201603 0.26597
C_ C_ 0.539886 0.931838 0.200317 -0.11981
C_ C_ 0.788519 0.937602 0.194866 -0.11981
C_ C_ 0.55172 0.958236 0.219595 0.19611
C_ C_ 0.793409 0.962129 0.217845 0.19611
N_ N_ 0.65365 0.722307 0.061427 -0.35402
N_ N_ 0.898556 0.720402 0.063801 -0.35402
N_ N_ 0.609988 0.660557 0.133172 -0.27957
N_ N_ 0.855321 0.659187 0.138709 -0.27957
N_ N_ 0.536953 0.6359 0.0684759 -0.27957
N_ N_ 0.781276 0.624723 0.063324 -0.27957
N_ N_ 0.548242 0.712924 4.0000000000040004e-05 -0.35402
N_ N_ 0.802126 0.707029 0.000166713 -0.35402
N_ N_ 0.599097 0.536348 0.309996 -0.35402
N_ N_ 0.850136 0.529709 0.317557 -0.35402
N_ N_ 0.647003 0.598513 0.382115 -0.27957
N_ N_ 0.896316 0.588139 0.392252 -0.27957
N_ N_ 0.720402 0.625278 0.317861 -0.27957
N_ N_ 0.970333 0.628417 0.311247 -0.27957
N_ N_ 0.694249 0.545518 0.251505 -0.35402
N_ N_ 0.940081 0.54293 0.253967 -0.35402
N_ N_ 0.595408 0.778991 0.434541 -0.35402
N_ N_ 0.845967 0.774499 0.431205 -0.35402
N_ N_ 0.643398 0.843819 0.364359 -0.27957
N_ N_ 0.89054 0.832361 0.354704 -0.27957
N_ N_ 0.71848 0.867692 0.429141 -0.27957
N_ N_ 0.966189 0.864284 0.42394 -0.27957
N_ N_ 0.693877 0.79437 0.498713 -0.35402
N_ N_ 0.945643 0.795829 0.496383 -0.35402
N_ N_ 0.656477 0.967601 0.185793 -0.35402
N_ N_ 0.898138 0.965553 0.185956 -0.35402
N_ N_ 0.614258 0.908356 0.112147 -0.27957
N_ N_ 0.855845 0.903814 0.11263 -0.27957
N_ N_ 0.532545 0.867747 0.187735 -0.27957
N_ N_ 0.781947 0.874626 0.178455 -0.27957
N_ N_ 0.563186 0.952052 0.247703 -0.35402
N_ N_ 0.804613 0.952646 0.246065 -0.35402
O_ O_ 0.613138 0.53507 0.2291 -0.59275
O_ O_ 0.86829 0.530347 0.228793 -0.59275
O_ O_ 0.555463 0.540982 0.249574 -0.41573
O_ O_ 0.810592 0.536058 0.252446 -0.41573
O_ O_ 0.545674 0.67717 0.134946 -0.59275
O_ O_ 0.788581 0.666996 0.136202 -0.59275
O_ O_ 0.665721 0.641289 0.155555 -0.59275
O_ O_ 0.915095 0.64736 0.163258 -0.59275
O_ O_ 0.68388 0.549585 0.173918 -0.59275
O_ O_ 0.922073 0.547609 0.174112 -0.59275
O_ O_ 0.728687 0.519259 0.191862 -0.41573
O_ O_ 0.967517 0.513561 0.189694 -0.41573
O_ O_ 0.715228 0.628054 0.0712122 -0.59275
O_ O_ 0.958787 0.624278 0.0724284 -0.59275
O_ O_ 0.591236 0.604643 0.0633469 -0.59275
O_ O_ 0.834769 0.593067 0.0593241 -0.59275
O_ O_ 0.63554 0.721977 0.481298 -0.59275
O_ O_ 0.890815 0.724994 0.478555 -0.59275
O_ O_ 0.692296 0.713285 0.00160056 -0.41573
O_ O_ 0.939955 0.711355 0.00514889 -0.41573
O_ O_ 0.701688 0.571032 0.39312 -0.59275
O_ O_ 0.96329 0.582251 0.386566 -0.59275
O_ O_ 0.607433 0.645662 0.38099 -0.59275
O_ O_ 0.840209 0.605447 0.412332 -0.59275
O_ O_ 0.557479 0.700017 0.431463 -0.59275
O_ O_ 0.816724 0.699246 0.428229 -0.59275
O_ O_ 0.515318 0.738862 0.436864 -0.41573
O_ O_ 0.771877 0.732943 0.444085 -0.41573
O_ O_ 0.523924 0.607678 0.33309 -0.59275
O_ O_ 0.779786 0.611887 0.333638 -0.59275
O_ O_ 0.668947 0.659525 0.310369 -0.59275
O_ O_ 0.906777 0.640577 0.319229 -0.59275
O_ O_ 0.642667 0.965569 0.263065 -0.59275
O_ O_ 0.886099 0.968937 0.265255 -0.59275
O_ O_ 0.700967 0.957137 0.244301 -0.41573
O_ O_ 0.944502 0.962328 0.246406 -0.41573
O_ O_ 0.704586 0.824185 0.359658 -0.59275
O_ O_ 0.955382 0.819981 0.358899 -0.59275
O_ O_ 0.586998 0.871838 0.351109 -0.59275
O_ O_ 0.83331 0.856928 0.339122 -0.59275
O_ O_ 0.572881 0.958859 0.325422 -0.59275
O_ O_ 0.819192 0.95025 0.324159 -0.59275
O_ O_ 0.523114 0.982309 0.307679 -0.41573
O_ O_ 0.770721 0.972901 0.302409 -0.41573
O_ O_ 0.541454 0.882119 0.436635 -0.59275
O_ O_ 0.784191 0.864468 0.422842 -0.59275
O_ O_ 0.663022 0.894455 0.42923 -0.59275
O_ O_ 0.910306 0.892468 0.430611 -0.59275
O_ O_ 0.607689 0.782692 0.0134267 -0.59275
O_ O_ 0.858159 0.779825 0.0185037 -0.59275
O_ O_ 0.557719 0.787348 0.497461 -0.41573
O_ O_ 0.805087 0.788671 0.496013 -0.41573
O_ O_ 0.549734 0.916533 0.121432 -0.59275
O_ O_ 0.79175 0.923358 0.105817 -0.59275
O_ O_ 0.66716 0.890163 0.0856541 -0.59275
O_ O_ 0.912244 0.882451 0.09553 -0.59275
O_ O_ 0.685101 0.802055 0.0703489 -0.59275
O_ O_ 0.927861 0.797952 0.0774379 -0.59275
O_ O_ 0.727848 0.769211 0.0517313 -0.41573
O_ O_ 0.972751 0.76433 0.0635051 -0.41573
O_ O_ 0.719705 0.88251 0.165636 -0.59275
O_ O_ 0.963989 0.877645 0.183776 -0.59275
O_ O_ 0.593958 0.848591 0.179985 -0.59275
O_ O_ 0.842113 0.852913 0.176126 -0.59275
Cd Cd 0.679548 0.501716 0.720368 0.98062
Cd Cd 0.925171 0.5071 0.717962 0.98062
Cd Cd 0.556405 0.753606 0.96458 0.98062
Cd Cd 0.813379 0.747861 0.969074 0.98062
Cd Cd 0.573616 0.999161 0.782415 0.98062
Cd Cd 0.819035 1.00284329 0.780279 0.98062
Cd Cd 0.67786 0.755789 0.531297 0.98062
Cd Cd 0.929083 0.757558 0.531141 0.98062
H_ H_ 0.52053 0.591125 0.726251 0.11374
H_ H_ 0.762944 0.593767 0.728566 0.11374
H_ H_ 0.754782 0.639195 0.689687 0.11374
H_ H_ 1.0143794 0.640879 0.694085 0.11374
H_ H_ 0.63444 0.582443 0.69073 0.11374
H_ H_ 0.880289 0.584987 0.696745 0.11374
H_ H_ 0.621366 0.759458 0.577863 0.11374
H_ H_ 0.865212 0.762896 0.584527 0.11374
H_ H_ 0.593006 0.724376 0.621766 0.11374
H_ H_ 0.831961 0.726033 0.622244 0.11374
H_ H_ 0.664185 0.64329 0.597958 0.11374
H_ H_ 0.909948 0.648632 0.600421 0.11374
H_ H_ 0.693897 0.679083 0.55776 0.11374
H_ H_ 0.942609 0.691239 0.562851 0.11374
H_ H_ 0.549556 0.535811 0.662156 0.11374
H_ H_ 0.791189 0.52884 0.660457 0.11374
H_ H_ 0.588504 0.571925 0.624507 0.11374
H_ H_ 0.838845 0.567678 0.630267 0.11374
H_ H_ 0.697726 0.585902 0.625126 0.11374
H_ H_ 0.951566 0.590341 0.630142 0.11374
H_ H_ 0.562571 0.670387 0.972219 0.11374
H_ H_ 0.802941 0.668043 0.9687 0.11374
H_ H_ 0.549777 0.62093 0.51153 0.11374
H_ H_ 0.805754 0.616203 0.513258 0.11374
H_ H_ 0.520713 0.699791 0.57175 0.11374
H_ H_ 0.7849 0.702155 0.575662 0.11374
H_ H_ 0.540347 0.744131 0.5334 0.11374
H_ H_ 0.79557 0.740841 0.533325 0.11374
H_ H_ 0.723576 0.656448 0.98272 0.11374
H_ H_ 0.982269 0.674207 0.965462 0.11374
H_ H_ 0.479656 0.605911 0.947756 0.11374
H_ H_ 0.734224 0.608583 0.943053 0.11374
H_ H_ 0.613617 0.671522 0.939047 0.11374
H_ H_ 0.859736 0.666637 0.944357 0.11374
H_ H_ 0.642501 0.996044 0.828178 0.11374
H_ H_ 0.88509 0.991306 0.830083 0.11374
H_ H_ 0.658525 0.528471 0.871071 0.11374
H_ H_ 0.893624 0.518857 0.881479 0.11374
H_ H_ 0.578266 0.603748 0.851359 0.11374
H_ H_ 0.853554 0.610476 0.843027 0.11374
H_ H_ 0.559436 0.571916 0.805052 0.11374
H_ H_ 0.824554 0.574193 0.801565 0.11374
H_ H_ 0.707426 0.72799 0.907164 0.11374
H_ H_ 0.958201 0.729617 0.906891 0.11374
H_ H_ 0.659761 0.693558 0.872724 0.11374
H_ H_ 0.912366 0.699661 0.870252 0.11374
H_ H_ 0.542102 0.669551 0.869111 0.11374
H_ H_ 0.79381 0.663845 0.875835 0.11374
H_ H_ 0.685011 0.584299 0.723054 0.11374
H_ H_ 0.94223 0.593966 0.722301 0.11374
H_ H_ 0.692443 0.631674 0.761275 0.11374
H_ H_ 0.947791 0.638096 0.764195 0.11374
H_ H_ 0.723544 0.554146 0.822636 0.11374
H_ H_ 0.964895 0.558778 0.824654 0.11374
H_ H_ 0.698544 0.508944 0.790398 0.11374
H_ H_ 0.957306 0.512974 0.783174 0.11374
H_ H_ 0.729635 0.90847 0.770587 0.11374
H_ H_ 0.988683 0.915614 0.782897 0.11374
H_ H_ 0.493055 0.874157 0.8196 0.11374
H_ H_ 0.734293 0.86618 0.811383 0.11374
H_ H_ 0.612609 0.923001 0.801708 0.11374
H_ H_ 0.868943 0.914949 0.806211 0.11374
H_ H_ 0.631478 0.746233 0.922238 0.11374
H_ H_ 0.877384 0.738204 0.919203 0.11374
H_ H_ 0.651044 0.775332 0.870596 0.11374
H_ H_ 0.898213 0.767545 0.874142 0.11374
H_ H_ 0.581915 0.857677 0.897185 0.11374
H_ H_ 0.840316 0.856046 0.901989 0.11374
H_ H_ 0.550163 0.821816 0.936814 0.11374
H_ H_ 0.815856 0.825487 0.946489 0.11374
H_ H_ 0.713928 0.97642 0.840571 0.11374
H_ H_ 0.958829 0.9769 0.841324 0.11374
H_ H_ 0.664489 0.943138 0.873815 0.11374
H_ H_ 0.913206 0.946786 0.880352 0.11374
H_ H_ 0.558025 0.915749 0.881374 0.11374
H_ H_ 0.802286 0.908292 0.86478 0.11374
H_ H_ 0.688656 0.838688 0.526904 0.11374
H_ H_ 0.928698 0.839981 0.521652 0.11374
H_ H_ 0.6905 0.876654 0.980231 0.11374
H_ H_ 0.949588 0.884599 0.995314 0.11374
H_ H_ 0.720826 0.799229 0.919799 0.11374
H_ H_ 0.955881 0.812723 0.924235 0.11374
H_ H_ 0.708476 0.757292 0.959237 0.11374
H_ H_ 0.945998 0.764584 0.959445 0.11374
H_ H_ 0.518544 0.830506 0.527283 0.11374
H_ H_ 0.764354 0.835407 0.527233 0.11374
H_ H_ 0.759354 0.876327 0.569592 0.11374
H_ H_ 0.00713587 0.867424 0.568937 0.11374
H_ H_ 0.641221 0.83395 0.553973 0.11374
H_ H_ 0.880595 0.82761 0.557074 0.11374
H_ H_ 0.612358 0.504935 0.66959 0.11374
H_ H_ 0.876517 0.510326 0.65723 0.11374
H_ H_ 0.617752 0.98359 0.616237 0.11374
H_ H_ 0.846942 0.966958 0.62929 0.11374
H_ H_ 0.653085 0.890671 0.658411 0.11374
H_ H_ 0.910666 0.883489 0.658755 0.11374
H_ H_ 0.676195 0.923996 0.701828 0.11374
H_ H_ 0.929376 0.918616 0.703942 0.11374
H_ H_ 0.544739 0.779782 0.590463 0.11374
H_ H_ 0.791167 0.777533 0.593478 0.11374
H_ H_ 0.588196 0.805613 0.6269 0.11374
H_ H_ 0.834363 0.806362 0.631644 0.11374
H_ H_ 0.699711 0.841484 0.617188 0.11374
H_ H_ 0.948908 0.835807 0.626934 0.11374
H_ H_ 0.557345 0.918871 0.779202 0.11374
H_ H_ 0.821019 0.923616 0.774695 0.11374
H_ H_ 0.54179 0.869415 0.741783 0.11374
H_ H_ 0.812227 0.875746 0.736712 0.11374
H_ H_ 0.544473 0.942974 0.671905 0.11374
H_ H_ 0.787007 0.949514 0.670046 0.11374
H_ H_ 0.565077 0.990306 0.709334 0.11374
H_ H_ 0.806765 0.997287 0.706844 0.11374
C_ C_ 0.583003 0.551866 0.733434 0.62841
C_ C_ 0.82704 0.556453 0.736959 0.62841
C_ C_ 0.580093 0.582317 0.712602 -0.11088
C_ C_ 0.822778 0.585968 0.716375 -0.11088
C_ C_ 0.544829 0.599046 0.711533 -0.11981
C_ C_ 0.787888 0.602628 0.714079 -0.11981
C_ C_ 0.537974 0.624251 0.689666 -0.11981
C_ C_ 0.782859 0.629782 0.693951 -0.11981
C_ C_ 0.569632 0.637293 0.672193 -0.11088
C_ C_ 0.815573 0.642041 0.675911 -0.11088
C_ C_ 0.605228 0.624538 0.67518 -0.11088
C_ C_ 0.850543 0.627749 0.679938 -0.11088
C_ C_ 0.609255 0.594548 0.692126 -0.11981
C_ C_ 0.854457 0.599182 0.698774 -0.11981
C_ C_ 0.628906 0.638605 0.652449 0.50456
C_ C_ 0.875617 0.642493 0.657673 0.50456
C_ C_ 0.573813 0.659474 0.648462 0.50456
C_ C_ 0.819443 0.664204 0.652814 0.50456
C_ C_ 0.628464 0.734128 0.582779 0.19611
C_ C_ 0.871054 0.73652 0.585444 0.19611
C_ C_ 0.611533 0.714101 0.606393 -0.11981
C_ C_ 0.855236 0.716064 0.607893 -0.11981
C_ C_ 0.623355 0.680336 0.612194 0.26597
C_ C_ 0.870754 0.684271 0.615707 0.26597
C_ C_ 0.650867 0.66792 0.592177 -0.11981
C_ C_ 0.901478 0.674275 0.598229 -0.11981
C_ C_ 0.668437 0.689589 0.570841 0.19611
C_ C_ 0.91552 0.694763 0.573616 0.19611
C_ C_ 0.714258 0.53916 0.670307 0.62841
C_ C_ 0.962535 0.540589 0.671093 0.62841
C_ C_ 0.741923 0.556473 0.647151 -0.11088
C_ C_ 0.990928 0.5546 0.647541 -0.11088
C_ C_ 0.535511 0.552733 0.647159 -0.11981
C_ C_ 0.780467 0.54809 0.645026 -0.11981
C_ C_ 0.558199 0.566987 0.622628 -0.11981
C_ C_ 0.80657 0.567391 0.625798 -0.11981
C_ C_ 0.543133 0.588177 0.602378 -0.11088
C_ C_ 0.792036 0.591755 0.606947 -0.11088
C_ C_ 0.753481 0.595246 0.604628 -0.11088
C_ C_ 0.0047954 0.595712 0.607058 -0.11088
C_ C_ 0.727588 0.578822 0.624967 -0.11981
C_ C_ 0.978718 0.580426 0.627867 -0.11981
C_ C_ 0.559597 0.614335 0.582755 0.50456
C_ C_ 0.810266 0.613483 0.585563 0.50456
C_ C_ 0.749583 0.620803 0.582949 0.50456
C_ C_ -0.0004830000000000112 0.615896 0.582595 0.50456
C_ C_ 0.557806 0.672558 0.49533 0.19611
C_ C_ 0.805398 0.6696 0.49496 0.19611
C_ C_ 0.548435 0.647542 0.517294 -0.11981
C_ C_ 0.799909 0.643721 0.517971 -0.11981
C_ C_ 0.537244 0.656961 0.545778 0.26597
C_ C_ 0.7912 0.654363 0.54675 0.26597
C_ C_ 0.531558 0.69181 0.550137 -0.11981
C_ C_ 0.789423 0.691597 0.552343 -0.11981
C_ C_ 0.539279 0.716759 0.527454 0.19611
C_ C_ 0.796227 0.713511 0.528429 0.19611
C_ C_ 0.663979 0.700991 0.983534 0.62841
C_ C_ 0.915065 0.699865 0.98322 0.62841
C_ C_ 0.66842 0.670268 0.962625 -0.11088
C_ C_ 0.919295 0.668998 0.965143 -0.11088
C_ C_ 0.702498 0.652028 0.964335 -0.11981
C_ C_ 0.956986 0.65876 0.958134 -0.11981
C_ C_ 0.708048 0.624983 0.942721 -0.11981
C_ C_ 0.961368 0.629379 0.938901 -0.11981
C_ C_ 0.680234 0.618445 0.919516 -0.11088
C_ C_ 0.929362 0.611971 0.925705 -0.11088
C_ C_ 0.646759 0.634365 0.920423 -0.11088
C_ C_ 0.89392 0.623881 0.928656 -0.11088
C_ C_ 0.638292 0.656531 0.94346 -0.11981
C_ C_ 0.887406 0.653504 0.947219 -0.11981
C_ C_ 0.620075 0.618893 0.89994 0.50456
C_ C_ 0.871297 0.610969 0.904167 0.50456
C_ C_ 0.672715 0.592042 0.898983 0.50456
C_ C_ 0.927168 0.588417 0.902641 0.50456
C_ C_ 0.621736 0.518368 0.833075 0.19611
C_ C_ 0.870107 0.513279 0.836152 0.19611
C_ C_ 0.635106 0.537244 0.858637 -0.11981
C_ C_ 0.885564 0.532973 0.861098 -0.11981
C_ C_ 0.621354 0.570027 0.863451 0.26597
C_ C_ 0.880201 0.56882 0.862577 0.26597
C_ C_ 0.590541 0.580076 0.845705 -0.11981
C_ C_ 0.856445 0.583276 0.84182 -0.11981
C_ C_ 0.577811 0.560848 0.820427 0.19611
C_ C_ 0.841122 0.562922 0.817752 0.19611
C_ C_ 0.522894 0.716174 0.915841 0.62841
C_ C_ 0.779222 0.710434 0.921003 0.62841
C_ C_ 0.49683 0.697222 0.892949 -0.11088
C_ C_ 0.754811 0.69751 0.895132 -0.11088
C_ C_ 0.717005 0.708061 0.89223 -0.11981
C_ C_ 0.967589 0.709227 0.892466 -0.11981
C_ C_ 0.691627 0.69185 0.869685 -0.11981
C_ C_ 0.941988 0.693854 0.871663 -0.11981
C_ C_ 0.705925 0.669435 0.847933 -0.11088
C_ C_ 0.954875 0.670361 0.851731 -0.11088
C_ C_ 0.486803 0.659021 0.849225 -0.11088
C_ C_ 0.743392 0.660276 0.849953 -0.11088
C_ C_ 0.512406 0.675409 0.869631 -0.11981
C_ C_ 0.76645 0.67369 0.873494 -0.11981
C_ C_ 0.686788 0.642516 0.832325 0.50456
C_ C_ 0.936009 0.647555 0.831404 0.50456
C_ C_ 0.493793 0.630922 0.830218 0.50456
C_ C_ 0.745806 0.630995 0.832946 0.50456
C_ C_ 0.688989 0.577062 0.746145 0.19611
C_ C_ 0.944554 0.584023 0.744845 0.19611
C_ C_ 0.692691 0.603606 0.768261 -0.11981
C_ C_ 0.947845 0.610289 0.768492 -0.11981
C_ C_ 0.702749 0.596156 0.797134 0.26597
C_ C_ 0.953728 0.599513 0.797105 0.26597
C_ C_ 0.70409 0.560823 0.805055 -0.11981
C_ C_ 0.953661 0.564146 0.803168 -0.11981
C_ C_ 0.697147 0.534691 0.782239 0.19611
C_ C_ 0.948083 0.539595 0.779967 0.19611
C_ C_ 0.668152 0.952296 0.763014 0.62841
C_ C_ 0.922925 0.947637 0.764988 0.62841
C_ C_ 0.672189 0.923858 0.784817 -0.11088
C_ C_ 0.927302 0.91773 0.787916 -0.11088
C_ C_ 0.706138 0.904119 0.785891 -0.11981
C_ C_ 0.964249 0.906364 0.795706 -0.11981
C_ C_ 0.70778 0.877768 0.807401 -0.11981
C_ C_ 0.967474 0.880181 0.816492 -0.11981
C_ C_ 0.679308 0.873459 0.829226 -0.11088
C_ C_ 0.935052 0.863035 0.82974 -0.11088
C_ C_ 0.645865 0.888416 0.825684 -0.11088
C_ C_ 0.899663 0.874307 0.821727 -0.11088
C_ C_ 0.640205 0.914295 0.804347 -0.11981
C_ C_ 0.894581 0.902938 0.802994 -0.11981
C_ C_ 0.618472 0.870181 0.843965 0.50456
C_ C_ 0.873715 0.856292 0.840508 0.50456
C_ C_ 0.670477 0.842899 0.846613 0.50456
C_ C_ 0.928383 0.838003 0.852795 0.50456
C_ C_ 0.618918 0.770417 0.915081 0.19611
C_ C_ 0.870042 0.764926 0.917197 0.19611
C_ C_ 0.630653 0.786444 0.887237 -0.11981
C_ C_ 0.884281 0.782968 0.892035 -0.11981
C_ C_ 0.617245 0.819095 0.879468 0.26597
C_ C_ 0.873662 0.815866 0.88437 0.26597
C_ C_ 0.588479 0.830826 0.897827 -0.11981
C_ C_ 0.85104 0.831536 0.906648 -0.11981
C_ C_ 0.574266 0.812043 0.922582 0.19611
C_ C_ 0.838879 0.814135 0.933232 0.19611
C_ C_ 0.540621 0.959149 0.833728 0.62841
C_ C_ 0.785317 0.962268 0.826751 0.62841
C_ C_ 0.512437 0.944725 0.859158 -0.11088
C_ C_ 0.758394 0.942701 0.847872 -0.11088
C_ C_ 0.720447 0.954038 0.85142 -0.11981
C_ C_ 0.968893 0.956107 0.856394 -0.11981
C_ C_ 0.695133 0.936644 0.872565 -0.11981
C_ C_ 0.942828 0.938768 0.878884 -0.11981
C_ C_ 0.707722 0.910644 0.89133 -0.11088
C_ C_ 0.959038 0.919409 0.901528 -0.11088
C_ C_ 0.502105 0.907447 0.903297 -0.11088
C_ C_ 0.746918 0.903121 0.889407 -0.11088
C_ C_ 0.528224 0.92613 0.884015 -0.11981
C_ C_ 0.771606 0.915969 0.866678 -0.11981
C_ C_ 0.688362 0.888868 0.911195 0.50456
C_ C_ 0.940525 0.897797 0.923072 0.50456
C_ C_ 0.504664 0.885301 0.928496 0.50456
C_ C_ 0.746979 0.875413 0.908879 0.50456
C_ C_ 0.689029 0.826623 -0.002919000000000005 0.19611
C_ C_ 0.948157 0.830688 0.00837394 0.19611
C_ C_ 0.692861 0.849933 0.973729 -0.11981
C_ C_ 0.95407 0.858561 0.988071 -0.11981
C_ C_ 0.707425 0.841568 0.946247 0.26597
C_ C_ 0.95738 0.852438 0.957588 0.26597
C_ C_ 0.713792 0.807963 0.941943 -0.11981
C_ C_ 0.954942 0.818186 0.948178 -0.11981
C_ C_ 0.70775 0.783981 0.965205 0.19611
C_ C_ 0.944625 0.7916 0.967603 0.19611
C_ C_ 0.588064 0.802139 0.512549 0.62841
C_ C_ 0.830509 0.799142 0.5163 0.62841
C_ C_ 0.580494 0.827432 0.537555 -0.11088
C_ C_ 0.826818 0.830667 0.535538 -0.11088
C_ C_ 0.543795 0.83958 0.540988 -0.11981
C_ C_ 0.790864 0.844995 0.540982 -0.11981
C_ C_ 0.539415 0.866205 0.561316 -0.11981
C_ C_ 0.786879 0.870598 0.562419 -0.11981
C_ C_ 0.571933 0.883062 0.576572 -0.11088
C_ C_ 0.822375 0.886104 0.57613 -0.11088
C_ C_ 0.607754 0.871045 0.572213 -0.11088
C_ C_ 0.857274 0.872019 0.573172 -0.11088
C_ C_ 0.61302 0.842705 0.555407 -0.11981
C_ C_ 0.858553 0.843252 0.553869 -0.11981
C_ C_ 0.631276 0.88839 0.593452 0.50456
C_ C_ 0.880772 0.883224 0.597022 0.50456
C_ C_ 0.57572 0.908208 0.599827 0.50456
C_ C_ 0.826127 0.905678 0.602262 0.50456
C_ C_ 0.634336 0.987272 0.663885 0.19611
C_ C_ 0.879848 0.974722 0.670897 0.19611
C_ C_ 0.624657 0.968615 0.636493 -0.11981
C_ C_ 0.86845 0.95711 0.644136 -0.11981
C_ C_ 0.628736 0.932032 0.634962 0.26597
C_ C_ 0.876431 0.922493 0.640523 0.26597
C_ C_ 0.645347 0.917472 0.660897 -0.11981
C_ C_ 0.902308 0.909428 0.660121 -0.11981
C_ C_ 0.659701 0.937354 0.683687 0.19611
C_ C_ 0.91671 0.929171 0.685518 0.19611
C_ C_ 0.714594 0.787556 0.580266 0.62841
C_ C_ 0.966385 0.790379 0.579527 0.62841
C_ C_ 0.743122 0.807889 0.602006 -0.11088
C_ C_ 0.990838 0.802714 0.604979 -0.11088
C_ C_ 0.533665 0.795694 0.605325 -0.11981
C_ C_ 0.781554 0.798994 0.606307 -0.11981
C_ C_ 0.558605 0.808491 0.629529 -0.11981
C_ C_ 0.805385 0.814449 0.630013 -0.11981
C_ C_ 0.544592 0.833382 0.648887 -0.11088
C_ C_ 0.787819 0.83617 0.649658 -0.11088
C_ C_ 0.751093 0.844443 0.646756 -0.11088
C_ C_ 0.0026483 0.83832 0.651198 -0.11088
C_ C_ 0.728771 0.833367 0.620772 -0.11981
C_ C_ 0.979411 0.829731 0.625926 -0.11981
C_ C_ 0.562526 0.853512 0.671986 0.50456
C_ C_ 0.807538 0.85788 0.669028 0.50456
C_ C_ 0.751753 0.873446 0.664964 0.50456
C_ C_ 0.00133937 0.867845 0.669301 0.50456
C_ C_ 0.556325 0.923263 0.755972 0.19611
C_ C_ 0.812945 0.929952 0.751938 0.19611
C_ C_ 0.550449 0.89581 0.733997 -0.11981
C_ C_ 0.804191 0.90159 0.731483 -0.11981
C_ C_ 0.548968 0.903283 0.703704 0.26597
C_ C_ 0.791934 0.909109 0.703653 0.26597
C_ C_ 0.548571 0.937919 0.695358 -0.11981
C_ C_ 0.790303 0.944269 0.694385 -0.11981
C_ C_ 0.556763 0.965076 0.717862 0.19611
C_ C_ 0.799604 0.972022 0.715124 0.19611
N_ N_ 0.654476 0.720591 0.563848 -0.35402
N_ N_ 0.89935 0.725028 0.567548 -0.35402
N_ N_ 0.610699 0.663593 0.638325 -0.27957
N_ N_ 0.855308 0.664026 0.640476 -0.27957
N_ N_ 0.531642 0.6295 0.568551 -0.27957
N_ N_ 0.783419 0.629206 0.56986 -0.27957
N_ N_ 0.552528 0.706778 0.500627 -0.35402
N_ N_ 0.806035 0.704953 0.501064 -0.35402
N_ N_ 0.592423 0.527941 0.814323 -0.35402
N_ N_ 0.846033 0.527409 0.816164 -0.35402
N_ N_ 0.637336 0.593199 0.887256 -0.27957
N_ N_ 0.89074 0.587577 0.890178 -0.27957
N_ N_ 0.711773 0.622044 0.819218 -0.27957
N_ N_ 0.960039 0.623656 0.821253 -0.27957
N_ N_ 0.689448 0.542604 0.753123 -0.35402
N_ N_ 0.944497 0.54931 0.75117 -0.35402
N_ N_ 0.589699 0.781646 0.931587 -0.35402
N_ N_ 0.846086 0.780088 0.937199 -0.35402
N_ N_ 0.632446 0.841027 0.855434 -0.27957
N_ N_ 0.890585 0.833849 0.858167 -0.27957
N_ N_ 0.712965 0.867733 0.923052 -0.27957
N_ N_ 0.965165 0.879176 0.936472 -0.27957
N_ N_ 0.693721 0.792883 0.991695 -0.35402
N_ N_ 0.944441 0.797379 -0.002191000000000054 -0.35402
N_ N_ 0.657081 0.972953 0.68504 -0.35402
N_ N_ 0.908036 0.962655 0.687666 -0.35402
N_ N_ 0.612307 0.910212 0.610592 -0.27957
N_ N_ 0.860431 0.903273 0.615115 -0.27957
N_ N_ 0.538335 0.875891 0.682799 -0.27957
N_ N_ 0.783589 0.879218 0.681949 -0.27957
N_ N_ 0.559825 0.957979 0.74763 -0.35402
N_ N_ 0.808594 0.96403 0.744262 -0.35402
O_ O_ 0.613866 0.533482 0.731634 -0.59275
O_ O_ 0.857524 0.540039 0.736964 -0.59275
O_ O_ 0.554959 0.537603 0.750269 -0.41573
O_ O_ 0.799477 0.543579 0.754677 -0.41573
O_ O_ 0.544568 0.667235 0.631221 -0.59275
O_ O_ 0.789928 0.673079 0.636386 -0.59275
O_ O_ 0.665565 0.642135 0.65655 -0.59275
O_ O_ 0.913145 0.647089 0.661959 -0.59275
O_ O_ 0.677186 0.542719 0.668226 -0.59275
O_ O_ 0.928996 0.553179 0.675222 -0.59275
O_ O_ 0.72464 0.523608 0.694267 -0.41573
O_ O_ 0.970145 0.516171 0.689496 -0.41573
O_ O_ 0.71668 0.622325 0.567881 -0.59275
O_ O_ 0.971483 0.634967 0.578038 -0.59275
O_ O_ 0.594495 0.613939 0.571469 -0.59275
O_ O_ 0.845035 0.610003 0.574754 -0.59275
O_ O_ 0.633222 0.717714 0.983574 -0.59275
O_ O_ 0.886012 0.717999 0.978223 -0.59275
O_ O_ 0.688999 0.709198 0.507945 -0.41573
O_ O_ 0.942117 0.713337 0.506643 -0.41573
O_ O_ 0.701703 0.580974 0.884219 -0.59275
O_ O_ 0.957931 0.578949 0.887589 -0.59275
O_ O_ 0.582923 0.615337 0.904953 -0.59275
O_ O_ 0.834837 0.612862 0.900778 -0.59275
O_ O_ 0.56062 0.710885 0.916402 -0.59275
O_ O_ 0.816063 0.704184 0.921669 -0.59275
O_ O_ 0.512157 0.736942 0.936283 -0.41573
O_ O_ 0.768677 0.733258 0.940618 -0.41573
O_ O_ 0.52814 0.628553 0.817792 -0.59275
O_ O_ 0.779114 0.620899 0.821819 -0.59275
O_ O_ 0.652534 0.647017 0.820382 -0.59275
O_ O_ 0.90316 0.653947 0.817931 -0.59275
O_ O_ 0.638616 0.971585 0.764145 -0.59275
O_ O_ 0.890782 0.962729 0.763783 -0.59275
O_ O_ 0.697243 0.962888 0.745154 -0.41573
O_ O_ 0.951496 0.960241 0.747059 -0.41573
O_ O_ 0.696438 0.831493 0.86561 -0.59275
O_ O_ 0.955669 0.824353 0.869377 -0.59275
O_ O_ 0.580817 0.870211 0.837372 -0.59275
O_ O_ 0.837447 0.849582 0.833076 -0.59275
O_ O_ 0.577373 0.954169 0.836055 -0.59275
O_ O_ 0.822239 0.958988 0.826556 -0.59275
O_ O_ 0.527403 0.974748 0.810206 -0.41573
O_ O_ 0.772474 0.98057 0.803916 -0.41573
O_ O_ 0.536202 0.88439 0.94436 -0.59275
O_ O_ 0.779097 0.866387 0.920164 -0.59275
O_ O_ 0.65555 0.895857 0.925365 -0.59275
O_ O_ 0.903147 0.89054 0.924982 -0.59275
O_ O_ 0.619834 0.783787 0.515436 -0.59275
O_ O_ 0.860925 0.782091 0.518427 -0.59275
O_ O_ 0.549766 0.794435 0.995807 -0.41573
O_ O_ 0.802782 0.788954 0.99355 -0.41573
O_ O_ 0.547632 0.918181 0.615357 -0.59275
O_ O_ 0.798098 0.916241 0.617777 -0.59275
O_ O_ 0.667964 0.89315 0.587885 -0.59275
O_ O_ 0.918348 0.887239 0.594992 -0.59275
O_ O_ 0.679914 0.797107 0.578051 -0.59275
O_ O_ 0.930407 0.797529 0.578922 -0.59275
O_ O_ 0.726158 0.770481 0.557142 -0.41573
O_ O_ 0.977625 0.769991 0.560011 -0.41573
O_ O_ 0.721937 0.888553 0.673269 -0.59275
O_ O_ 0.971742 0.874866 0.685106 -0.59275
O_ O_ 0.592112 0.844721 0.686762 -0.59275
O_ O_ 0.83899 0.850004 0.682951 -0.59275
