_cell_length_a 19.5206
_cell_length_b 17.9856
_cell_length_c 12.6054
_cell_angle_alpha 90.0
_cell_angle_beta 99.0355
_cell_angle_gamma 90.0
_symmetry_space_group_name_H-M         'P 1'
_symmetry_Int_Tables_number            1
loop_
_symmetry_equiv_pos_as_xyz
   'x, y, z'
                         
loop_
_atom_site_label
_atom_site_type_symbol
_atom_site_fract_x 
_atom_site_fract_y
_atom_site_fract_z
_atom_site_charge
C1 C1 0.239 0.898 0.609 0.0
H1 H1 0.238 0.948 0.594 0.0
C2 C2 0.243 0.849 0.526 0.0
H2 H2 0.245 0.868 0.458 0.0
C3 C3 0.246 0.776 0.542 0.0
C4 C4 0.245 0.754 0.646 0.0
H4 H4 0.248 0.703 0.663 0.0
C5 C5 0.241 0.805 0.725 0.0
H5 H5 0.242 0.788 0.795 0.0
C6 C6 0.353 0.937 0.983 0.0
H6 H6 0.327 0.904 1.017 0.0
C7 C7 0.42 0.946 1.024 0.0
H7 H7 0.439 0.919 1.085 0.0
C8 C8 0.462 0.994 0.979 0.0
C9 C9 0.431 1.031 0.887 0.0
H9 H9 0.457 1.063 0.852 0.0
C10 C10 0.363 1.02 0.851 0.0
H10 H10 0.342 1.046 0.79 0.0
C11 C11 0.164 0.903 0.985 0.0
C12 C12 0.124 0.857 1.055 0.0
C13 C13 0.083 0.798 1.013 0.0
H13 H13 0.084 0.784 0.942 0.0
C14 C14 0.042 0.759 1.073 0.0
H14 H14 0.017 0.718 1.042 0.0
C15 C15 0.038 0.778 1.177 0.0
C16 C16 0.077 0.838 1.22 0.0
H16 H16 0.074 0.853 1.29 0.0
C17 C17 0.12 0.876 1.16 0.0
C18 C18 0.167 0.935 1.216 0.0
C19 C19 0.0 0.73 1.25 0.0
C20 C20 -0.05 0.68 1.187 0.0
F1 F1 -0.09 0.718 1.109 0.0
F2 F2 -0.02 0.624 1.135 0.0
F3 F3 -0.09 0.65 1.247 0.0
N1 N1 0.236 0.877 0.707 0.0
N2 N2 0.322 0.973 0.896 0.0
O1 O1 0.171 0.971 1.001 0.0
O2 O2 0.189 0.868 0.922 0.0
O3 O3 0.228 0.932 1.215 0.0
O4 O4 0.142 0.984 1.261 0.0
O1W O1W 0.322 0.821 0.152 0.0
H1X H1X 0.313 0.832 0.213 0.0
H1Y H1Y 0.347 0.781 0.157 0.0
O2W O2W 0.437 0.663 0.33 0.0
H2X H2X 0.409 0.69 0.358 0.0
H2Y H2Y 0.415 0.641 0.274 0.0
O3W O3W 0.444 0.566 0.528 0.0
H3X H3X 0.406 0.548 0.498 0.0
H3Y H3Y 0.464 0.536 0.575 0.0
Zn1 Zn1 0.222 0.949 0.828 0.0
C1 C1 -0.239 0.898 -0.10899999999999999 0.0
H1 H1 -0.238 0.948 -0.09399999999999997 0.0
C2 C2 -0.243 0.849 -0.026000000000000023 0.0
H2 H2 -0.245 0.868 0.04199999999999998 0.0
C3 C3 -0.246 0.776 -0.04200000000000004 0.0
C4 C4 -0.245 0.754 -0.14600000000000002 0.0
H4 H4 -0.248 0.703 -0.16300000000000003 0.0
C5 C5 -0.241 0.805 -0.22499999999999998 0.0
H5 H5 -0.242 0.788 -0.29500000000000004 0.0
C6 C6 -0.353 0.937 -0.483 0.0
H6 H6 -0.327 0.904 -0.5169999999999999 0.0
C7 C7 -0.42 0.946 -0.524 0.0
H7 H7 -0.439 0.919 -0.585 0.0
C8 C8 -0.462 0.994 -0.479 0.0
C9 C9 -0.431 1.031 -0.387 0.0
H9 H9 -0.457 1.063 -0.352 0.0
C10 C10 -0.363 1.02 -0.351 0.0
H10 H10 -0.342 1.046 -0.29000000000000004 0.0
C11 C11 -0.164 0.903 -0.485 0.0
C12 C12 -0.124 0.857 -0.5549999999999999 0.0
C13 C13 -0.083 0.798 -0.5129999999999999 0.0
H13 H13 -0.084 0.784 -0.44199999999999995 0.0
C14 C14 -0.042 0.759 -0.573 0.0
H14 H14 -0.017 0.718 -0.542 0.0
C15 C15 -0.038 0.778 -0.677 0.0
C16 C16 -0.077 0.838 -0.72 0.0
H16 H16 -0.074 0.853 -0.79 0.0
C17 C17 -0.12 0.876 -0.6599999999999999 0.0
C18 C18 -0.167 0.935 -0.716 0.0
C19 C19 -0.0 0.73 -0.75 0.0
C20 C20 0.05 0.68 -0.687 0.0
F1 F1 0.09 0.718 -0.609 0.0
F2 F2 0.02 0.624 -0.635 0.0
F3 F3 0.09 0.65 -0.7470000000000001 0.0
N1 N1 -0.236 0.877 -0.20699999999999996 0.0
N2 N2 -0.322 0.973 -0.396 0.0
O1 O1 -0.171 0.971 -0.5009999999999999 0.0
O2 O2 -0.189 0.868 -0.42200000000000004 0.0
O3 O3 -0.228 0.932 -0.7150000000000001 0.0
O4 O4 -0.142 0.984 -0.7609999999999999 0.0
O1W O1W -0.322 0.821 0.348 0.0
H1X H1X -0.313 0.832 0.28700000000000003 0.0
H1Y H1Y -0.347 0.781 0.34299999999999997 0.0
O2W O2W -0.437 0.663 0.16999999999999998 0.0
H2X H2X -0.409 0.69 0.14200000000000002 0.0
H2Y H2Y -0.415 0.641 0.22599999999999998 0.0
O3W O3W -0.444 0.566 -0.028000000000000025 0.0
H3X H3X -0.406 0.548 0.0020000000000000018 0.0
H3Y H3Y -0.464 0.536 -0.07499999999999996 0.0
Zn1 Zn1 -0.222 0.949 -0.32799999999999996 0.0
C1 C1 0.739 1.3980000000000001 0.609 0.0
H1 H1 0.738 1.448 0.594 0.0
C2 C2 0.743 1.349 0.526 0.0
H2 H2 0.745 1.3679999999999999 0.458 0.0
C3 C3 0.746 1.276 0.542 0.0
C4 C4 0.745 1.254 0.646 0.0
H4 H4 0.748 1.2029999999999998 0.663 0.0
C5 C5 0.741 1.3050000000000002 0.725 0.0
H5 H5 0.742 1.288 0.795 0.0
C6 C6 0.853 1.437 0.983 0.0
H6 H6 0.827 1.404 1.017 0.0
C7 C7 0.9199999999999999 1.446 1.024 0.0
H7 H7 0.9390000000000001 1.419 1.085 0.0
C8 C8 0.962 1.494 0.979 0.0
C9 C9 0.931 1.531 0.887 0.0
H9 H9 0.9570000000000001 1.563 0.852 0.0
C10 C10 0.863 1.52 0.851 0.0
H10 H10 0.8420000000000001 1.546 0.79 0.0
C11 C11 0.664 1.403 0.985 0.0
C12 C12 0.624 1.357 1.055 0.0
C13 C13 0.583 1.298 1.013 0.0
H13 H13 0.584 1.284 0.942 0.0
C14 C14 0.542 1.259 1.073 0.0
H14 H14 0.517 1.218 1.042 0.0
C15 C15 0.538 1.278 1.177 0.0
C16 C16 0.577 1.338 1.22 0.0
H16 H16 0.574 1.353 1.29 0.0
C17 C17 0.62 1.376 1.16 0.0
C18 C18 0.667 1.435 1.216 0.0
C19 C19 0.5 1.23 1.25 0.0
C20 C20 0.45 1.1800000000000002 1.187 0.0
F1 F1 0.41000000000000003 1.218 1.109 0.0
F2 F2 0.48 1.124 1.135 0.0
F3 F3 0.41000000000000003 1.15 1.247 0.0
N1 N1 0.736 1.377 0.707 0.0
N2 N2 0.8220000000000001 1.4729999999999999 0.896 0.0
O1 O1 0.671 1.471 1.001 0.0
O2 O2 0.6890000000000001 1.3679999999999999 0.922 0.0
O3 O3 0.728 1.432 1.215 0.0
O4 O4 0.642 1.484 1.261 0.0
O1W O1W 0.8220000000000001 1.321 0.152 0.0
H1X H1X 0.813 1.3319999999999999 0.213 0.0
H1Y H1Y 0.847 1.2810000000000001 0.157 0.0
O2W O2W 0.937 1.163 0.33 0.0
H2X H2X 0.909 1.19 0.358 0.0
H2Y H2Y 0.915 1.141 0.274 0.0
O3W O3W 0.944 1.0659999999999998 0.528 0.0
H3X H3X 0.906 1.048 0.498 0.0
H3Y H3Y 0.964 1.036 0.575 0.0
Zn1 Zn1 0.722 1.4489999999999998 0.828 0.0
C1 C1 0.261 1.3980000000000001 -0.10899999999999999 0.0
H1 H1 0.262 1.448 -0.09399999999999997 0.0
C2 C2 0.257 1.349 -0.026000000000000023 0.0
H2 H2 0.255 1.3679999999999999 0.04199999999999998 0.0
C3 C3 0.254 1.276 -0.04200000000000004 0.0
C4 C4 0.255 1.254 -0.14600000000000002 0.0
H4 H4 0.252 1.2029999999999998 -0.16300000000000003 0.0
C5 C5 0.259 1.3050000000000002 -0.22499999999999998 0.0
H5 H5 0.258 1.288 -0.29500000000000004 0.0
C6 C6 0.14700000000000002 1.437 -0.483 0.0
H6 H6 0.173 1.404 -0.5169999999999999 0.0
C7 C7 0.08000000000000002 1.446 -0.524 0.0
H7 H7 0.061 1.419 -0.585 0.0
C8 C8 0.03799999999999998 1.494 -0.479 0.0
C9 C9 0.069 1.531 -0.387 0.0
H9 H9 0.04299999999999998 1.563 -0.352 0.0
C10 C10 0.137 1.52 -0.351 0.0
H10 H10 0.15799999999999997 1.546 -0.29000000000000004 0.0
C11 C11 0.33599999999999997 1.403 -0.485 0.0
C12 C12 0.376 1.357 -0.5549999999999999 0.0
C13 C13 0.417 1.298 -0.5129999999999999 0.0
H13 H13 0.416 1.284 -0.44199999999999995 0.0
C14 C14 0.458 1.259 -0.573 0.0
H14 H14 0.483 1.218 -0.542 0.0
C15 C15 0.462 1.278 -0.677 0.0
C16 C16 0.423 1.338 -0.72 0.0
H16 H16 0.426 1.353 -0.79 0.0
C17 C17 0.38 1.376 -0.6599999999999999 0.0
C18 C18 0.33299999999999996 1.435 -0.716 0.0
C19 C19 0.5 1.23 -0.75 0.0
C20 C20 0.55 1.1800000000000002 -0.687 0.0
F1 F1 0.59 1.218 -0.609 0.0
F2 F2 0.52 1.124 -0.635 0.0
F3 F3 0.59 1.15 -0.7470000000000001 0.0
N1 N1 0.264 1.377 -0.20699999999999996 0.0
N2 N2 0.178 1.4729999999999999 -0.396 0.0
O1 O1 0.32899999999999996 1.471 -0.5009999999999999 0.0
O2 O2 0.311 1.3679999999999999 -0.42200000000000004 0.0
O3 O3 0.272 1.432 -0.7150000000000001 0.0
O4 O4 0.358 1.484 -0.7609999999999999 0.0
O1W O1W 0.178 1.321 0.348 0.0
H1X H1X 0.187 1.3319999999999999 0.28700000000000003 0.0
H1Y H1Y 0.15300000000000002 1.2810000000000001 0.34299999999999997 0.0
O2W O2W 0.063 1.163 0.16999999999999998 0.0
H2X H2X 0.09100000000000003 1.19 0.14200000000000002 0.0
H2Y H2Y 0.08500000000000002 1.141 0.22599999999999998 0.0
O3W O3W 0.055999999999999994 1.0659999999999998 -0.028000000000000025 0.0
H3X H3X 0.09399999999999997 1.048 0.0020000000000000018 0.0
H3Y H3Y 0.035999999999999976 1.036 -0.07499999999999996 0.0
Zn1 Zn1 0.278 1.4489999999999998 -0.32799999999999996 0.0
C1 C1 -0.239 -0.898 -0.609 0.0
H1 H1 -0.238 -0.948 -0.594 0.0
C2 C2 -0.243 -0.849 -0.526 0.0
H2 H2 -0.245 -0.868 -0.458 0.0
C3 C3 -0.246 -0.776 -0.542 0.0
C4 C4 -0.245 -0.754 -0.646 0.0
H4 H4 -0.248 -0.703 -0.663 0.0
C5 C5 -0.241 -0.805 -0.725 0.0
H5 H5 -0.242 -0.788 -0.795 0.0
C6 C6 -0.353 -0.937 -0.983 0.0
H6 H6 -0.327 -0.904 -1.017 0.0
C7 C7 -0.42 -0.946 -1.024 0.0
H7 H7 -0.439 -0.919 -1.085 0.0
C8 C8 -0.462 -0.994 -0.979 0.0
C9 C9 -0.431 -1.031 -0.887 0.0
H9 H9 -0.457 -1.063 -0.852 0.0
C10 C10 -0.363 -1.02 -0.851 0.0
H10 H10 -0.342 -1.046 -0.79 0.0
C11 C11 -0.164 -0.903 -0.985 0.0
C12 C12 -0.124 -0.857 -1.055 0.0
C13 C13 -0.083 -0.798 -1.013 0.0
H13 H13 -0.084 -0.784 -0.942 0.0
C14 C14 -0.042 -0.759 -1.073 0.0
H14 H14 -0.017 -0.718 -1.042 0.0
C15 C15 -0.038 -0.778 -1.177 0.0
C16 C16 -0.077 -0.838 -1.22 0.0
H16 H16 -0.074 -0.853 -1.29 0.0
C17 C17 -0.12 -0.876 -1.16 0.0
C18 C18 -0.167 -0.935 -1.216 0.0
C19 C19 -0.0 -0.73 -1.25 0.0
C20 C20 0.05 -0.68 -1.187 0.0
F1 F1 0.09 -0.718 -1.109 0.0
F2 F2 0.02 -0.624 -1.135 0.0
F3 F3 0.09 -0.65 -1.247 0.0
N1 N1 -0.236 -0.877 -0.707 0.0
N2 N2 -0.322 -0.973 -0.896 0.0
O1 O1 -0.171 -0.971 -1.001 0.0
O2 O2 -0.189 -0.868 -0.922 0.0
O3 O3 -0.228 -0.932 -1.215 0.0
O4 O4 -0.142 -0.984 -1.261 0.0
O1W O1W -0.322 -0.821 -0.152 0.0
H1X H1X -0.313 -0.832 -0.213 0.0
H1Y H1Y -0.347 -0.781 -0.157 0.0
O2W O2W -0.437 -0.663 -0.33 0.0
H2X H2X -0.409 -0.69 -0.358 0.0
H2Y H2Y -0.415 -0.641 -0.274 0.0
O3W O3W -0.444 -0.566 -0.528 0.0
H3X H3X -0.406 -0.548 -0.498 0.0
H3Y H3Y -0.464 -0.536 -0.575 0.0
Zn1 Zn1 -0.222 -0.949 -0.828 0.0
C1 C1 0.239 -0.898 0.10899999999999999 0.0
H1 H1 0.238 -0.948 0.09399999999999997 0.0
C2 C2 0.243 -0.849 0.026000000000000023 0.0
H2 H2 0.245 -0.868 -0.04199999999999998 0.0
C3 C3 0.246 -0.776 0.04200000000000004 0.0
C4 C4 0.245 -0.754 0.14600000000000002 0.0
H4 H4 0.248 -0.703 0.16300000000000003 0.0
C5 C5 0.241 -0.805 0.22499999999999998 0.0
H5 H5 0.242 -0.788 0.29500000000000004 0.0
C6 C6 0.353 -0.937 0.483 0.0
H6 H6 0.327 -0.904 0.5169999999999999 0.0
C7 C7 0.42 -0.946 0.524 0.0
H7 H7 0.439 -0.919 0.585 0.0
C8 C8 0.462 -0.994 0.479 0.0
C9 C9 0.431 -1.031 0.387 0.0
H9 H9 0.457 -1.063 0.352 0.0
C10 C10 0.363 -1.02 0.351 0.0
H10 H10 0.342 -1.046 0.29000000000000004 0.0
C11 C11 0.164 -0.903 0.485 0.0
C12 C12 0.124 -0.857 0.5549999999999999 0.0
C13 C13 0.083 -0.798 0.5129999999999999 0.0
H13 H13 0.084 -0.784 0.44199999999999995 0.0
C14 C14 0.042 -0.759 0.573 0.0
H14 H14 0.017 -0.718 0.542 0.0
C15 C15 0.038 -0.778 0.677 0.0
C16 C16 0.077 -0.838 0.72 0.0
H16 H16 0.074 -0.853 0.79 0.0
C17 C17 0.12 -0.876 0.6599999999999999 0.0
C18 C18 0.167 -0.935 0.716 0.0
C19 C19 0.0 -0.73 0.75 0.0
C20 C20 -0.05 -0.68 0.687 0.0
F1 F1 -0.09 -0.718 0.609 0.0
F2 F2 -0.02 -0.624 0.635 0.0
F3 F3 -0.09 -0.65 0.7470000000000001 0.0
N1 N1 0.236 -0.877 0.20699999999999996 0.0
N2 N2 0.322 -0.973 0.396 0.0
O1 O1 0.171 -0.971 0.5009999999999999 0.0
O2 O2 0.189 -0.868 0.42200000000000004 0.0
O3 O3 0.228 -0.932 0.7150000000000001 0.0
O4 O4 0.142 -0.984 0.7609999999999999 0.0
O1W O1W 0.322 -0.821 -0.348 0.0
H1X H1X 0.313 -0.832 -0.28700000000000003 0.0
H1Y H1Y 0.347 -0.781 -0.34299999999999997 0.0
O2W O2W 0.437 -0.663 -0.16999999999999998 0.0
H2X H2X 0.409 -0.69 -0.14200000000000002 0.0
H2Y H2Y 0.415 -0.641 -0.22599999999999998 0.0
O3W O3W 0.444 -0.566 0.028000000000000025 0.0
H3X H3X 0.406 -0.548 -0.0020000000000000018 0.0
H3Y H3Y 0.464 -0.536 0.07499999999999996 0.0
Zn1 Zn1 0.222 -0.949 0.32799999999999996 0.0
C1 C1 0.261 -0.398 -0.609 0.0
H1 H1 0.262 -0.44799999999999995 -0.594 0.0
C2 C2 0.257 -0.349 -0.526 0.0
H2 H2 0.255 -0.368 -0.458 0.0
C3 C3 0.254 -0.276 -0.542 0.0
C4 C4 0.255 -0.254 -0.646 0.0
H4 H4 0.252 -0.20299999999999996 -0.663 0.0
C5 C5 0.259 -0.30500000000000005 -0.725 0.0
H5 H5 0.258 -0.28800000000000003 -0.795 0.0
C6 C6 0.14700000000000002 -0.43700000000000006 -0.983 0.0
H6 H6 0.173 -0.404 -1.017 0.0
C7 C7 0.08000000000000002 -0.44599999999999995 -1.024 0.0
H7 H7 0.061 -0.41900000000000004 -1.085 0.0
C8 C8 0.03799999999999998 -0.494 -0.979 0.0
C9 C9 0.069 -0.5309999999999999 -0.887 0.0
H9 H9 0.04299999999999998 -0.563 -0.852 0.0
C10 C10 0.137 -0.52 -0.851 0.0
H10 H10 0.15799999999999997 -0.546 -0.79 0.0
C11 C11 0.33599999999999997 -0.403 -0.985 0.0
C12 C12 0.376 -0.357 -1.055 0.0
C13 C13 0.417 -0.29800000000000004 -1.013 0.0
H13 H13 0.416 -0.28400000000000003 -0.942 0.0
C14 C14 0.458 -0.259 -1.073 0.0
H14 H14 0.483 -0.21799999999999997 -1.042 0.0
C15 C15 0.462 -0.278 -1.177 0.0
C16 C16 0.423 -0.33799999999999997 -1.22 0.0
H16 H16 0.426 -0.353 -1.29 0.0
C17 C17 0.38 -0.376 -1.16 0.0
C18 C18 0.33299999999999996 -0.43500000000000005 -1.216 0.0
C19 C19 0.5 -0.22999999999999998 -1.25 0.0
C20 C20 0.55 -0.18000000000000005 -1.187 0.0
F1 F1 0.59 -0.21799999999999997 -1.109 0.0
F2 F2 0.52 -0.124 -1.135 0.0
F3 F3 0.59 -0.15000000000000002 -1.247 0.0
N1 N1 0.264 -0.377 -0.707 0.0
N2 N2 0.178 -0.473 -0.896 0.0
O1 O1 0.32899999999999996 -0.471 -1.001 0.0
O2 O2 0.311 -0.368 -0.922 0.0
O3 O3 0.272 -0.43200000000000005 -1.215 0.0
O4 O4 0.358 -0.484 -1.261 0.0
O1W O1W 0.178 -0.32099999999999995 -0.152 0.0
H1X H1X 0.187 -0.33199999999999996 -0.213 0.0
H1Y H1Y 0.15300000000000002 -0.281 -0.157 0.0
O2W O2W 0.063 -0.16300000000000003 -0.33 0.0
H2X H2X 0.09100000000000003 -0.18999999999999995 -0.358 0.0
H2Y H2Y 0.08500000000000002 -0.14100000000000001 -0.274 0.0
O3W O3W 0.055999999999999994 -0.06599999999999995 -0.528 0.0
H3X H3X 0.09399999999999997 -0.04800000000000004 -0.498 0.0
H3Y H3Y 0.035999999999999976 -0.03600000000000003 -0.575 0.0
Zn1 Zn1 0.278 -0.44899999999999995 -0.828 0.0
C1 C1 0.739 -0.398 0.10899999999999999 0.0
H1 H1 0.738 -0.44799999999999995 0.09399999999999997 0.0
C2 C2 0.743 -0.349 0.026000000000000023 0.0
H2 H2 0.745 -0.368 -0.04199999999999998 0.0
C3 C3 0.746 -0.276 0.04200000000000004 0.0
C4 C4 0.745 -0.254 0.14600000000000002 0.0
H4 H4 0.748 -0.20299999999999996 0.16300000000000003 0.0
C5 C5 0.741 -0.30500000000000005 0.22499999999999998 0.0
H5 H5 0.742 -0.28800000000000003 0.29500000000000004 0.0
C6 C6 0.853 -0.43700000000000006 0.483 0.0
H6 H6 0.827 -0.404 0.5169999999999999 0.0
C7 C7 0.9199999999999999 -0.44599999999999995 0.524 0.0
H7 H7 0.9390000000000001 -0.41900000000000004 0.585 0.0
C8 C8 0.962 -0.494 0.479 0.0
C9 C9 0.931 -0.5309999999999999 0.387 0.0
H9 H9 0.9570000000000001 -0.563 0.352 0.0
C10 C10 0.863 -0.52 0.351 0.0
H10 H10 0.8420000000000001 -0.546 0.29000000000000004 0.0
C11 C11 0.664 -0.403 0.485 0.0
C12 C12 0.624 -0.357 0.5549999999999999 0.0
C13 C13 0.583 -0.29800000000000004 0.5129999999999999 0.0
H13 H13 0.584 -0.28400000000000003 0.44199999999999995 0.0
C14 C14 0.542 -0.259 0.573 0.0
H14 H14 0.517 -0.21799999999999997 0.542 0.0
C15 C15 0.538 -0.278 0.677 0.0
C16 C16 0.577 -0.33799999999999997 0.72 0.0
H16 H16 0.574 -0.353 0.79 0.0
C17 C17 0.62 -0.376 0.6599999999999999 0.0
C18 C18 0.667 -0.43500000000000005 0.716 0.0
C19 C19 0.5 -0.22999999999999998 0.75 0.0
C20 C20 0.45 -0.18000000000000005 0.687 0.0
F1 F1 0.41000000000000003 -0.21799999999999997 0.609 0.0
F2 F2 0.48 -0.124 0.635 0.0
F3 F3 0.41000000000000003 -0.15000000000000002 0.7470000000000001 0.0
N1 N1 0.736 -0.377 0.20699999999999996 0.0
N2 N2 0.8220000000000001 -0.473 0.396 0.0
O1 O1 0.671 -0.471 0.5009999999999999 0.0
O2 O2 0.6890000000000001 -0.368 0.42200000000000004 0.0
O3 O3 0.728 -0.43200000000000005 0.7150000000000001 0.0
O4 O4 0.642 -0.484 0.7609999999999999 0.0
O1W O1W 0.8220000000000001 -0.32099999999999995 -0.348 0.0
H1X H1X 0.813 -0.33199999999999996 -0.28700000000000003 0.0
H1Y H1Y 0.847 -0.281 -0.34299999999999997 0.0
O2W O2W 0.937 -0.16300000000000003 -0.16999999999999998 0.0
H2X H2X 0.909 -0.18999999999999995 -0.14200000000000002 0.0
H2Y H2Y 0.915 -0.14100000000000001 -0.22599999999999998 0.0
O3W O3W 0.944 -0.06599999999999995 0.028000000000000025 0.0
H3X H3X 0.906 -0.04800000000000004 -0.0020000000000000018 0.0
H3Y H3Y 0.964 -0.03600000000000003 0.07499999999999996 0.0
Zn1 Zn1 0.722 -0.44899999999999995 0.32799999999999996 0.0
